&HEAD CHID='mcfrs_ranch_00', TITLE='MCFD ranch house, SVN $Revision$'  /

&TIME T_END=600.0 /

&DUMP NFRAMES=3000 /

&MESH IJK=96,48,32, XB=-2.0, 9.8,-2.0, 5.1,0.0,4.6, / Open Boundary
&MESH IJK=96,48,32, XB= 9.8,21.6,-2.0, 5.1,0.0,4.6, / Open Boundary
&MESH IJK=96,48,32, XB=-2.0, 9.8, 5.1,12.2,0.0,4.6, / Open Boundary
&MESH IJK=96,48,32, XB= 9.8,21.6, 5.1,12.2,0.0,4.6, / Open Boundary

&PART ID='tracers', MASSLESS=.TRUE. /

&VENT XB=1.5,2.5,5.7,6.7,1.0,1.0, SURF_ID='FIRE', COLOR='MINT' / Vent in Burn Room A
xxxVENT XB=17.0,18.0,5.7,6.7,1.0,1.0, SURF_ID='FIRE', COLOR='MINT' / Vent in Burn Room B

&MATL ID='CONCRETE',
      SPECIFIC_HEAT=0.880,
      CONDUCTIVITY=1.4,
      DENSITY=2300.0 /

&MATL ID='GYPSUM PLASTER',
      SPECIFIC_HEAT=0.84,
      CONDUCTIVITY=0.48,
      DENSITY=1440.0 /

&SURF ID='WALL',
      MATL_ID='CONCRETE',
      THICKNESS=0.2 /

&SURF ID='CEILING',
      MATL_ID='GYPSUM PLASTER',
      THICKNESS=0.2 /

&SURF ID='FIRE',
      HRRPUA=1900.0,
      RAMP_Q='hrr curve',
      PART_ID='tracers' /

&RAMP ID='hrr curve', T=0.0, F=0.0 /
&RAMP ID='hrr curve', T=50.0, F=0.3 /
&RAMP ID='hrr curve', T=100.0, F=0.5 /
&RAMP ID='hrr curve', T=120.0, F=0.6 /
&RAMP ID='hrr curve', T=150.0, F=0.7 /
&RAMP ID='hrr curve', T=170.0, F=0.75 /
&RAMP ID='hrr curve', T=180.0, F=0.8 /
&RAMP ID='hrr curve', T=190.0, F=0.8 /
&RAMP ID='hrr curve', T=200.0, F=0.9 /
&RAMP ID='hrr curve', T=220.0, F=0.9 /
&RAMP ID='hrr curve', T=250.0, F=1.0 /
&RAMP ID='hrr curve', T=300.0, F=1.0 /
&RAMP ID='hrr curve', T=350.0, F=0.9 /
&RAMP ID='hrr curve', T=380.0, F=0.8 /
&RAMP ID='hrr curve', T=400.0, F=0.75 /
&RAMP ID='hrr curve', T=450.0, F=0.6 /
&RAMP ID='hrr curve', T=500.0, F=0.5 /

&OBST XB=0.0,0.2,0.0,10.0,0.0,2.4, SURF_ID='WALL', COLOR='GRAY 58' / West Outside Wall
&OBST XB=0.0,19.4,10.0,10.2,0.0,2.4, SURF_ID='WALL', COLOR='GRAY 58' / North Outside Wall
&OBST XB=19.4,19.6,0.2,10.2,0.0,2.4, SURF_ID='WALL', COLOR='GRAY 58' / East Outside Wal1
&OBST XB=0.2,19.6,0.0,0.2,0.0,2.4, SURF_ID='WALL', COLOR='GRAY 58' / South Outside Wall
&OBST XB=0.0,19.6,0.0,10.2,2.4,2.6, SURF_ID='CEILING', COLOR='WHEAT' / Ceiling

&OBST XB=3.9,4.1,0.2,10.0,0.0,2.4, SURF_ID='WALL', COLOR='GRAY 58' / Burn Room A and Target Room B Wall
&OBST XB=15.5,15.7,0.2,10.0,0.0,2.4, SURF_ID='WALL', COLOR='GRAY 58' / Burn Room B and Target Room A Wall

&OBST XB=0.2,3.9,5.1,5.3,0.0,2.4, SURF_ID='WALL', COLOR='GRAY 58' / Burn Room A and Target Room B Wall Separator
&OBST XB=15.7,19.4,5.1,5.3,0.0,2.4, SURF_ID='WALL', COLOR='GRAY 58' / Burn Room B annd Target Room A Wall Separator

&OBST XB=5.0,5.2,3.2,7.0,0.0,2.4, SURF_ID='WALL', COLOR='GRAY 58' / Middle Section, Left North-South Wall
&OBST XB=5.2,14.2,5.1,5.3,0.0,2.4, SURF_ID='WALL', COLOR='GRAY 58' / Middle Section, East-West Wall
&OBST XB=9.3,9.5,5.1,10.0,0.0,2.4, SURF_ID='WALL', COLOR='GRAY 58' / Middle Section, Middle North-South Wall
&OBST XB=14.2,14.4,3.2,7.0,0.0,2.4, SURF_ID='WALL', COLOR='GRAY 58' / Middle Section, Right North South Wall

&OBST XB=1.5,2.5,5.7,6.7,0.0,1.0, COLOR='NAVY' / Block for Vent in Burn Room A
&OBST XB=17.0,18.0,5.7,6.7,0.0,1.0, COLOR='NAVY' / Block for Vent in Burn Room B

&HOLE XB=-0.01,0.21,7.1,7.9,0.9,1.7 / Window in Burn Room A
&HOLE XB=-0.01,0.21,2.2,3.0,0.9,1.7 / Window in Target Room B
&HOLE XB=19.39,19.61,7.1,7.9,0.9,1.7 / Window in Burn Room B
&HOLE XB=19.39,19.61,2.2,3.0,0.9,1.7 / Window in Target Room A

&HOLE XB=3.89,4.11,6.9,7.8,0.0,2.0 / Door for Burn Room A
&HOLE XB=3.89,4.11,2.2,3.1,0.0,2.0 / Door for Target Room B
&HOLE XB=15.49,15.71,6.9,7.8,0.0,2.0 / Door for Burn Room B
&HOLE XB=15.49,15.71,2.2,3.1,0.0,2.0 / Door for Target Room A
&HOLE XB=9.29,9.51,6.9,7.8,0.0,2.0 / Door for Middle Section, Middle North-South Wall
&HOLE XB=8.8,9.7,-0.01,0.21,0.0,2.0 / Door for South Outside Wall

&VENT XB=-2.0,-2.0,-2.0,12.2,0.0,4.6, SURF_ID='OPEN' / East Open Boundary
&VENT XB=-2.0,21.6,12.2,12.2,0.0,4.6, SURF_ID='OPEN' / North Open Boundary
&VENT XB=21.6,21.6,-2.0,12.2,0.0,4.6, SURF_ID='OPEN' / West Open Boundary
&VENT XB=-2.0,21.6,-2.0,-2.0,0.0,4.6, SURF_ID='OPEN' / South Open Boundary
&VENT XB=-2.0,21.6,-2.0,12.2,4.6,4.6, SURF_ID='OPEN' / Ceiling Open Boundary

&PART ID='WATER_DROPLETS', WATER=.TRUE., SAMPLING_FACTOR=1, QUANTITIES='DROPLET_DIAMETER','DROPLET_VELOCITY' /

&PROP ID ='TEST SPRINKLER', QUANTITY='SPRINKLER LINK TEMPERATURE', PART_ID='WATER_DROPLETS', FLOW_RATE=5., SPRAY_ANGLE=0.,20. /

&DEVC ID='Spr_1', XYZ=2.0,7.5,2.4, PROP_ID='TEST SPRINKLER' / Sprinkler in Burn Room A
&DEVC ID='Spr_2', XYZ=17.5,7.5,2.4, PROP_ID='TEST SPRINKLER' / Sprinkler in Burn Room B

&SLCF PBX=2.0, QUANTITY='TEMPERATURE', VECTOR=.TRUE. /
&SLCF PBX=17.5, QUANTITY='TEMPERATURE', VECTOR=.TRUE. /
&SLCF PBZ=2.3, QUANTITY='TEMPERATURE', VECTOR=.TRUE. /
&SLCF PBX=9.3, QUANTITY='TEMPERATURE', VECTOR=.TRUE. /

&SLCF PBX=2.0, QUANTITY='oxygen' /
&SLCF PBX=17.5, QUANTITY='oxygen' /
&SLCF PBZ=2.3, QUANTITY='oxygen' /
&SLCF PBX=9.3, QUANTITY='oxygen' /

&BNDF QUANTITY='RADIATIVE_FLUX' /
&BNDF QUANTITY='CONVECTIVE_FLUX' /
&BNDF QUANTITY='HEAT_FLUX' /
&BNDF QUANTITY='WALL_TEMPERATURE' /
&BNDF QUANTITY='BURNING_RATE' /

&ISOF QUANTITY='TEMPERATURE', VALUE(1)=100. /
&ISOF QUANTITY='TEMPERATURE', VALUE(1)=620. /

&TAIL /
