&HEAD CHID='Extinction', TITLE='Test_Case_For_Extinction_Models' /
&MISC GVEC(3) = 0.0, STRATIFICATION=.FALSE., EDC=.TRUE. /
&SURF ID= 'LINER', ADIABATIC=.TRUE.,RGB=178,178,178, DEFAULT=.TRUE. /
&DUMP MASS_FILE=.TRUE. /
&RADI RADIATION=.FALSE.,RADIATIVE_FRACTION=0.0 / 
&TIME T_END=0.25 DT=0.01, LOCK_TIME_STEP=.TRUE. /
&CLIP MAXIMUM_TEMPERATURE=4000 /

&SPEC ID='NITROGEN', BACKGROUND=.TRUE./
&SPEC ID='METHANE' /
&SPEC ID='OXYGEN' /
&SPEC ID='WATER VAPOR' /
&SPEC ID='CARBON DIOXIDE' /

&REAC FUEL='METHANE'
      SMIX_ID='METHANE','OXYGEN','CARBON DIOXIDE','WATER VAPOR' 
      NU=-1,-2,1,2
      FIXED_MIX_TIME=0.125 /  

&MESH IJK=8,8,8, XB=0.0,0.1,0.0,0.1,0.0,0.1 /
&INIT XB=0.0,0.1,0.0,0.1,0.0,0.1, SPEC_ID(1)='METHANE', MASS_FRACTION(1) = 0.614193025282, SPEC_ID(2)='OXYGEN', MASS_FRACTION(2)= 0.0887356041852, TEMPERATURE = 1415.1335911 /
&ZONE XB=0.0,0.1,0.0,0.1,0.0,0.1, /
&DEVC XB=0.0,0.1,0.0,0.1,0.0,0.1, QUANTITY='HRRPUV', STATISTICS='VOLUME INTEGRAL', ID='HRR1' /
&DEVC XB=0.0,0.1,0.0,0.1,0.0,0.1, QUANTITY='TEMPERATURE', STATISTICS='MEAN', ID='TEMP1' /
&DEVC XB=0.0,0.1,0.0,0.1,0.0,0.1, QUANTITY='MASS FRACTION', STATISTICS='MEAN', SPEC_ID='OXYGEN', ID='O2_1' /
&DEVC XB=0.0,0.1,0.0,0.1,0.0,0.1, QUANTITY='MASS FRACTION', STATISTICS='MEAN', SPEC_ID='METHANE', ID='METHANE_1' /

&MESH IJK=8,8,8, XB=0.2,0.3,0.0,0.1,0.0,0.1 /
&INIT XB=0.2,0.3,0.0,0.1,0.0,0.1, SPEC_ID(1)='METHANE', MASS_FRACTION(1) = 0.273280231246, SPEC_ID(2)='OXYGEN', MASS_FRACTION(2)= 0.167145546813, TEMPERATURE = 1226.23568286 /
&ZONE XB=0.2,0.3,0.0,0.1,0.0,0.1, /
&DEVC XB=0.2,0.3,0.0,0.1,0.0,0.1, QUANTITY='HRRPUV', STATISTICS='VOLUME INTEGRAL', ID='HRR2' /
&DEVC XB=0.2,0.3,0.0,0.1,0.0,0.1, QUANTITY='TEMPERATURE', STATISTICS='MEAN', ID='TEMP2' /
&DEVC XB=0.2,0.3,0.0,0.1,0.0,0.1, QUANTITY='MASS FRACTION', STATISTICS='MEAN', SPEC_ID='OXYGEN', ID='O2_2' /
&DEVC XB=0.2,0.3,0.0,0.1,0.0,0.1, QUANTITY='MASS FRACTION', STATISTICS='MEAN', SPEC_ID='METHANE', ID='METHANE_2' /

&MESH IJK=8,8,8, XB=0.4,0.5,0.0,0.1,0.0,0.1 /
&INIT XB=0.4,0.5,0.0,0.1,0.0,0.1, SPEC_ID(1)='METHANE', MASS_FRACTION(1) = 0.746706917123, SPEC_ID(2)='OXYGEN', MASS_FRACTION(2)= 0.0582574090617, TEMPERATURE = 1006.96611773 /
&ZONE XB=0.4,0.5,0.0,0.1,0.0,0.1, /
&DEVC XB=0.4,0.5,0.0,0.1,0.0,0.1, QUANTITY='HRRPUV', STATISTICS='VOLUME INTEGRAL', ID='HRR3' /
&DEVC XB=0.4,0.5,0.0,0.1,0.0,0.1, QUANTITY='TEMPERATURE', STATISTICS='MEAN', ID='TEMP3' /
&DEVC XB=0.4,0.5,0.0,0.1,0.0,0.1, QUANTITY='MASS FRACTION', STATISTICS='MEAN', SPEC_ID='OXYGEN', ID='O2_3' /
&DEVC XB=0.4,0.5,0.0,0.1,0.0,0.1, QUANTITY='MASS FRACTION', STATISTICS='MEAN', SPEC_ID='METHANE', ID='METHANE_3' /

&MESH IJK=8,8,8, XB=0.6,0.7,0.0,0.1,0.0,0.1 /
&INIT XB=0.6,0.7,0.0,0.1,0.0,0.1, SPEC_ID(1)='METHANE', MASS_FRACTION(1) = 0.487871946746, SPEC_ID(2)='OXYGEN', MASS_FRACTION(2)= 0.117789452248, TEMPERATURE = 1716.75623803 /
&ZONE XB=0.6,0.7,0.0,0.1,0.0,0.1, /
&DEVC XB=0.6,0.7,0.0,0.1,0.0,0.1, QUANTITY='HRRPUV', STATISTICS='VOLUME INTEGRAL', ID='HRR4' /
&DEVC XB=0.6,0.7,0.0,0.1,0.0,0.1, QUANTITY='TEMPERATURE', STATISTICS='MEAN', ID='TEMP4' /
&DEVC XB=0.6,0.7,0.0,0.1,0.0,0.1, QUANTITY='MASS FRACTION', STATISTICS='MEAN', SPEC_ID='OXYGEN', ID='O2_4' /
&DEVC XB=0.6,0.7,0.0,0.1,0.0,0.1, QUANTITY='MASS FRACTION', STATISTICS='MEAN', SPEC_ID='METHANE', ID='METHANE_4' /

&MESH IJK=8,8,8, XB=0.8,0.9,0.0,0.1,0.0,0.1 /
&INIT XB=0.8,0.9,0.0,0.1,0.0,0.1, SPEC_ID(1)='METHANE', MASS_FRACTION(1) = 0.792375493865, SPEC_ID(2)='OXYGEN', MASS_FRACTION(2)= 0.0477536364111, TEMPERATURE = 810.878558811 /
&ZONE XB=0.8,0.9,0.0,0.1,0.0,0.1, /
&DEVC XB=0.8,0.9,0.0,0.1,0.0,0.1, QUANTITY='HRRPUV', STATISTICS='VOLUME INTEGRAL', ID='HRR5' /
&DEVC XB=0.8,0.9,0.0,0.1,0.0,0.1, QUANTITY='TEMPERATURE', STATISTICS='MEAN', ID='TEMP5' /
&DEVC XB=0.8,0.9,0.0,0.1,0.0,0.1, QUANTITY='MASS FRACTION', STATISTICS='MEAN', SPEC_ID='OXYGEN', ID='O2_5' /
&DEVC XB=0.8,0.9,0.0,0.1,0.0,0.1, QUANTITY='MASS FRACTION', STATISTICS='MEAN', SPEC_ID='METHANE', ID='METHANE_5' /

&MESH IJK=8,8,8, XB=1.0,1.1,0.0,0.1,0.0,0.1 /
&INIT XB=1.0,1.1,0.0,0.1,0.0,0.1, SPEC_ID(1)='METHANE', MASS_FRACTION(1) = 0.524462895915, SPEC_ID(2)='OXYGEN', MASS_FRACTION(2)= 0.109373533939, TEMPERATURE = 865.550525002 /
&ZONE XB=1.0,1.1,0.0,0.1,0.0,0.1, /
&DEVC XB=1.0,1.1,0.0,0.1,0.0,0.1, QUANTITY='HRRPUV', STATISTICS='VOLUME INTEGRAL', ID='HRR6' /
&DEVC XB=1.0,1.1,0.0,0.1,0.0,0.1, QUANTITY='TEMPERATURE', STATISTICS='MEAN', ID='TEMP6' /
&DEVC XB=1.0,1.1,0.0,0.1,0.0,0.1, QUANTITY='MASS FRACTION', STATISTICS='MEAN', SPEC_ID='OXYGEN', ID='O2_6' /
&DEVC XB=1.0,1.1,0.0,0.1,0.0,0.1, QUANTITY='MASS FRACTION', STATISTICS='MEAN', SPEC_ID='METHANE', ID='METHANE_6' /

&MESH IJK=8,8,8, XB=1.2,1.3,0.0,0.1,0.0,0.1 /
&INIT XB=1.2,1.3,0.0,0.1,0.0,0.1, SPEC_ID(1)='METHANE', MASS_FRACTION(1) = 0.597511525477, SPEC_ID(2)='OXYGEN', MASS_FRACTION(2)= 0.0925723491403, TEMPERATURE = 492.581468556 /
&ZONE XB=1.2,1.3,0.0,0.1,0.0,0.1, /
&DEVC XB=1.2,1.3,0.0,0.1,0.0,0.1, QUANTITY='HRRPUV', STATISTICS='VOLUME INTEGRAL', ID='HRR7' /
&DEVC XB=1.2,1.3,0.0,0.1,0.0,0.1, QUANTITY='TEMPERATURE', STATISTICS='MEAN', ID='TEMP7' /
&DEVC XB=1.2,1.3,0.0,0.1,0.0,0.1, QUANTITY='MASS FRACTION', STATISTICS='MEAN', SPEC_ID='OXYGEN', ID='O2_7' /
&DEVC XB=1.2,1.3,0.0,0.1,0.0,0.1, QUANTITY='MASS FRACTION', STATISTICS='MEAN', SPEC_ID='METHANE', ID='METHANE_7' /

&MESH IJK=8,8,8, XB=1.4,1.5,0.0,0.1,0.0,0.1 /
&INIT XB=1.4,1.5,0.0,0.1,0.0,0.1, SPEC_ID(1)='METHANE', MASS_FRACTION(1) = 0.220030197106, SPEC_ID(2)='OXYGEN', MASS_FRACTION(2)= 0.179393054666, TEMPERATURE = 1140.52490745 /
&ZONE XB=1.4,1.5,0.0,0.1,0.0,0.1, /
&DEVC XB=1.4,1.5,0.0,0.1,0.0,0.1, QUANTITY='HRRPUV', STATISTICS='VOLUME INTEGRAL', ID='HRR8' /
&DEVC XB=1.4,1.5,0.0,0.1,0.0,0.1, QUANTITY='TEMPERATURE', STATISTICS='MEAN', ID='TEMP8' /
&DEVC XB=1.4,1.5,0.0,0.1,0.0,0.1, QUANTITY='MASS FRACTION', STATISTICS='MEAN', SPEC_ID='OXYGEN', ID='O2_8' /
&DEVC XB=1.4,1.5,0.0,0.1,0.0,0.1, QUANTITY='MASS FRACTION', STATISTICS='MEAN', SPEC_ID='METHANE', ID='METHANE_8' /

&MESH IJK=8,8,8, XB=1.6,1.7,0.0,0.1,0.0,0.1 /
&INIT XB=1.6,1.7,0.0,0.1,0.0,0.1, SPEC_ID(1)='METHANE', MASS_FRACTION(1) = 0.364019256717, SPEC_ID(2)='OXYGEN', MASS_FRACTION(2)= 0.146275570955, TEMPERATURE = 718.847057096 /
&ZONE XB=1.6,1.7,0.0,0.1,0.0,0.1, /
&DEVC XB=1.6,1.7,0.0,0.1,0.0,0.1, QUANTITY='HRRPUV', STATISTICS='VOLUME INTEGRAL', ID='HRR9' /
&DEVC XB=1.6,1.7,0.0,0.1,0.0,0.1, QUANTITY='TEMPERATURE', STATISTICS='MEAN', ID='TEMP9' /
&DEVC XB=1.6,1.7,0.0,0.1,0.0,0.1, QUANTITY='MASS FRACTION', STATISTICS='MEAN', SPEC_ID='OXYGEN', ID='O2_9' /
&DEVC XB=1.6,1.7,0.0,0.1,0.0,0.1, QUANTITY='MASS FRACTION', STATISTICS='MEAN', SPEC_ID='METHANE', ID='METHANE_9' /

&MESH IJK=8,8,8, XB=1.8,1.9,0.0,0.1,0.0,0.1 /
&INIT XB=1.8,1.9,0.0,0.1,0.0,0.1, SPEC_ID(1)='METHANE', MASS_FRACTION(1) = 0.297242030696, SPEC_ID(2)='OXYGEN', MASS_FRACTION(2)= 0.16163433294, TEMPERATURE = 536.787335114 /
&ZONE XB=1.8,1.9,0.0,0.1,0.0,0.1, /
&DEVC XB=1.8,1.9,0.0,0.1,0.0,0.1, QUANTITY='HRRPUV', STATISTICS='VOLUME INTEGRAL', ID='HRR10' /
&DEVC XB=1.8,1.9,0.0,0.1,0.0,0.1, QUANTITY='TEMPERATURE', STATISTICS='MEAN', ID='TEMP10' /
&DEVC XB=1.8,1.9,0.0,0.1,0.0,0.1, QUANTITY='MASS FRACTION', STATISTICS='MEAN', SPEC_ID='OXYGEN', ID='O2_10' /
&DEVC XB=1.8,1.9,0.0,0.1,0.0,0.1, QUANTITY='MASS FRACTION', STATISTICS='MEAN', SPEC_ID='METHANE', ID='METHANE_10' /

&MESH IJK=8,8,8, XB=0.0,0.1,0.0,0.1,0.2,0.3 /
&INIT XB=0.0,0.1,0.0,0.1,0.2,0.3, SPEC_ID(1)='METHANE', MASS_FRACTION(1) = 0.851616918974, SPEC_ID(2)='OXYGEN', MASS_FRACTION(2)= 0.0341281086359, TEMPERATURE = 1056.09047242 /
&ZONE XB=0.0,0.1,0.0,0.1,0.2,0.3, /
&DEVC XB=0.0,0.1,0.0,0.1,0.2,0.3, QUANTITY='HRRPUV', STATISTICS='VOLUME INTEGRAL', ID='HRR11' /
&DEVC XB=0.0,0.1,0.0,0.1,0.2,0.3, QUANTITY='TEMPERATURE', STATISTICS='MEAN', ID='TEMP11' /
&DEVC XB=0.0,0.1,0.0,0.1,0.2,0.3, QUANTITY='MASS FRACTION', STATISTICS='MEAN', SPEC_ID='OXYGEN', ID='O2_11' /
&DEVC XB=0.0,0.1,0.0,0.1,0.2,0.3, QUANTITY='MASS FRACTION', STATISTICS='MEAN', SPEC_ID='METHANE', ID='METHANE_11' /

&MESH IJK=8,8,8, XB=0.2,0.3,0.0,0.1,0.2,0.3 /
&INIT XB=0.2,0.3,0.0,0.1,0.2,0.3, SPEC_ID(1)='METHANE', MASS_FRACTION(1) = 0.973689594593, SPEC_ID(2)='OXYGEN', MASS_FRACTION(2)= 0.00605139324355, TEMPERATURE = 1371.84456246 /
&ZONE XB=0.2,0.3,0.0,0.1,0.2,0.3, /
&DEVC XB=0.2,0.3,0.0,0.1,0.2,0.3, QUANTITY='HRRPUV', STATISTICS='VOLUME INTEGRAL', ID='HRR12' /
&DEVC XB=0.2,0.3,0.0,0.1,0.2,0.3, QUANTITY='TEMPERATURE', STATISTICS='MEAN', ID='TEMP12' /
&DEVC XB=0.2,0.3,0.0,0.1,0.2,0.3, QUANTITY='MASS FRACTION', STATISTICS='MEAN', SPEC_ID='OXYGEN', ID='O2_12' /
&DEVC XB=0.2,0.3,0.0,0.1,0.2,0.3, QUANTITY='MASS FRACTION', STATISTICS='MEAN', SPEC_ID='METHANE', ID='METHANE_12' /

&MESH IJK=8,8,8, XB=0.4,0.5,0.0,0.1,0.2,0.3 /
&INIT XB=0.4,0.5,0.0,0.1,0.2,0.3, SPEC_ID(1)='METHANE', MASS_FRACTION(1) = 0.62362160413, SPEC_ID(2)='OXYGEN', MASS_FRACTION(2)= 0.08656703105, TEMPERATURE = 1677.36906539 /
&ZONE XB=0.4,0.5,0.0,0.1,0.2,0.3, /
&DEVC XB=0.4,0.5,0.0,0.1,0.2,0.3, QUANTITY='HRRPUV', STATISTICS='VOLUME INTEGRAL', ID='HRR13' /
&DEVC XB=0.4,0.5,0.0,0.1,0.2,0.3, QUANTITY='TEMPERATURE', STATISTICS='MEAN', ID='TEMP13' /
&DEVC XB=0.4,0.5,0.0,0.1,0.2,0.3, QUANTITY='MASS FRACTION', STATISTICS='MEAN', SPEC_ID='OXYGEN', ID='O2_13' /
&DEVC XB=0.4,0.5,0.0,0.1,0.2,0.3, QUANTITY='MASS FRACTION', STATISTICS='MEAN', SPEC_ID='METHANE', ID='METHANE_13' /

&MESH IJK=8,8,8, XB=0.6,0.7,0.0,0.1,0.2,0.3 /
&INIT XB=0.6,0.7,0.0,0.1,0.2,0.3, SPEC_ID(1)='METHANE', MASS_FRACTION(1) = 0.892279193407, SPEC_ID(2)='OXYGEN', MASS_FRACTION(2)= 0.0247757855164, TEMPERATURE = 1341.60250644 /
&ZONE XB=0.6,0.7,0.0,0.1,0.2,0.3, /
&DEVC XB=0.6,0.7,0.0,0.1,0.2,0.3, QUANTITY='HRRPUV', STATISTICS='VOLUME INTEGRAL', ID='HRR14' /
&DEVC XB=0.6,0.7,0.0,0.1,0.2,0.3, QUANTITY='TEMPERATURE', STATISTICS='MEAN', ID='TEMP14' /
&DEVC XB=0.6,0.7,0.0,0.1,0.2,0.3, QUANTITY='MASS FRACTION', STATISTICS='MEAN', SPEC_ID='OXYGEN', ID='O2_14' /
&DEVC XB=0.6,0.7,0.0,0.1,0.2,0.3, QUANTITY='MASS FRACTION', STATISTICS='MEAN', SPEC_ID='METHANE', ID='METHANE_14' /

&MESH IJK=8,8,8, XB=0.8,0.9,0.0,0.1,0.2,0.3 /
&INIT XB=0.8,0.9,0.0,0.1,0.2,0.3, SPEC_ID(1)='METHANE', MASS_FRACTION(1) = 0.980902708288, SPEC_ID(2)='OXYGEN', MASS_FRACTION(2)= 0.00439237709384, TEMPERATURE = 1046.81890647 /
&ZONE XB=0.8,0.9,0.0,0.1,0.2,0.3, /
&DEVC XB=0.8,0.9,0.0,0.1,0.2,0.3, QUANTITY='HRRPUV', STATISTICS='VOLUME INTEGRAL', ID='HRR15' /
&DEVC XB=0.8,0.9,0.0,0.1,0.2,0.3, QUANTITY='TEMPERATURE', STATISTICS='MEAN', ID='TEMP15' /
&DEVC XB=0.8,0.9,0.0,0.1,0.2,0.3, QUANTITY='MASS FRACTION', STATISTICS='MEAN', SPEC_ID='OXYGEN', ID='O2_15' /
&DEVC XB=0.8,0.9,0.0,0.1,0.2,0.3, QUANTITY='MASS FRACTION', STATISTICS='MEAN', SPEC_ID='METHANE', ID='METHANE_15' /

&MESH IJK=8,8,8, XB=1.0,1.1,0.0,0.1,0.2,0.3 /
&INIT XB=1.0,1.1,0.0,0.1,0.2,0.3, SPEC_ID(1)='METHANE', MASS_FRACTION(1) = 0.64697910479, SPEC_ID(2)='OXYGEN', MASS_FRACTION(2)= 0.0811948058982, TEMPERATURE = 790.266675733 /
&ZONE XB=1.0,1.1,0.0,0.1,0.2,0.3, /
&DEVC XB=1.0,1.1,0.0,0.1,0.2,0.3, QUANTITY='HRRPUV', STATISTICS='VOLUME INTEGRAL', ID='HRR16' /
&DEVC XB=1.0,1.1,0.0,0.1,0.2,0.3, QUANTITY='TEMPERATURE', STATISTICS='MEAN', ID='TEMP16' /
&DEVC XB=1.0,1.1,0.0,0.1,0.2,0.3, QUANTITY='MASS FRACTION', STATISTICS='MEAN', SPEC_ID='OXYGEN', ID='O2_16' /
&DEVC XB=1.0,1.1,0.0,0.1,0.2,0.3, QUANTITY='MASS FRACTION', STATISTICS='MEAN', SPEC_ID='METHANE', ID='METHANE_16' /

&MESH IJK=8,8,8, XB=1.2,1.3,0.0,0.1,0.2,0.3 /
&INIT XB=1.2,1.3,0.0,0.1,0.2,0.3, SPEC_ID(1)='METHANE', MASS_FRACTION(1) = 0.798818508158, SPEC_ID(2)='OXYGEN', MASS_FRACTION(2)= 0.0462717431238, TEMPERATURE = 287.753709274 /
&ZONE XB=1.2,1.3,0.0,0.1,0.2,0.3, /
&DEVC XB=1.2,1.3,0.0,0.1,0.2,0.3, QUANTITY='HRRPUV', STATISTICS='VOLUME INTEGRAL', ID='HRR17' /
&DEVC XB=1.2,1.3,0.0,0.1,0.2,0.3, QUANTITY='TEMPERATURE', STATISTICS='MEAN', ID='TEMP17' /
&DEVC XB=1.2,1.3,0.0,0.1,0.2,0.3, QUANTITY='MASS FRACTION', STATISTICS='MEAN', SPEC_ID='OXYGEN', ID='O2_17' /
&DEVC XB=1.2,1.3,0.0,0.1,0.2,0.3, QUANTITY='MASS FRACTION', STATISTICS='MEAN', SPEC_ID='METHANE', ID='METHANE_17' /

&MESH IJK=8,8,8, XB=1.4,1.5,0.0,0.1,0.2,0.3 /
&INIT XB=1.4,1.5,0.0,0.1,0.2,0.3, SPEC_ID(1)='METHANE', MASS_FRACTION(1) = 0.404874443888, SPEC_ID(2)='OXYGEN', MASS_FRACTION(2)= 0.136878877906, TEMPERATURE = 385.94610533 /
&ZONE XB=1.4,1.5,0.0,0.1,0.2,0.3, /
&DEVC XB=1.4,1.5,0.0,0.1,0.2,0.3, QUANTITY='HRRPUV', STATISTICS='VOLUME INTEGRAL', ID='HRR18' /
&DEVC XB=1.4,1.5,0.0,0.1,0.2,0.3, QUANTITY='TEMPERATURE', STATISTICS='MEAN', ID='TEMP18' /
&DEVC XB=1.4,1.5,0.0,0.1,0.2,0.3, QUANTITY='MASS FRACTION', STATISTICS='MEAN', SPEC_ID='OXYGEN', ID='O2_18' /
&DEVC XB=1.4,1.5,0.0,0.1,0.2,0.3, QUANTITY='MASS FRACTION', STATISTICS='MEAN', SPEC_ID='METHANE', ID='METHANE_18' /

&MESH IJK=8,8,8, XB=1.6,1.7,0.0,0.1,0.2,0.3 /
&INIT XB=1.6,1.7,0.0,0.1,0.2,0.3, SPEC_ID(1)='METHANE', MASS_FRACTION(1) = 0.482364431287, SPEC_ID(2)='OXYGEN', MASS_FRACTION(2)= 0.119056180804, TEMPERATURE = 1217.44337019 /
&ZONE XB=1.6,1.7,0.0,0.1,0.2,0.3, /
&DEVC XB=1.6,1.7,0.0,0.1,0.2,0.3, QUANTITY='HRRPUV', STATISTICS='VOLUME INTEGRAL', ID='HRR19' /
&DEVC XB=1.6,1.7,0.0,0.1,0.2,0.3, QUANTITY='TEMPERATURE', STATISTICS='MEAN', ID='TEMP19' /
&DEVC XB=1.6,1.7,0.0,0.1,0.2,0.3, QUANTITY='MASS FRACTION', STATISTICS='MEAN', SPEC_ID='OXYGEN', ID='O2_19' /
&DEVC XB=1.6,1.7,0.0,0.1,0.2,0.3, QUANTITY='MASS FRACTION', STATISTICS='MEAN', SPEC_ID='METHANE', ID='METHANE_19' /

&MESH IJK=8,8,8, XB=1.8,1.9,0.0,0.1,0.2,0.3 /
&INIT XB=1.8,1.9,0.0,0.1,0.2,0.3, SPEC_ID(1)='METHANE', MASS_FRACTION(1) = 0.0638923592909, SPEC_ID(2)='OXYGEN', MASS_FRACTION(2)= 0.215304757363, TEMPERATURE = 1652.35971645 /
&ZONE XB=1.8,1.9,0.0,0.1,0.2,0.3, /
&DEVC XB=1.8,1.9,0.0,0.1,0.2,0.3, QUANTITY='HRRPUV', STATISTICS='VOLUME INTEGRAL', ID='HRR20' /
&DEVC XB=1.8,1.9,0.0,0.1,0.2,0.3, QUANTITY='TEMPERATURE', STATISTICS='MEAN', ID='TEMP20' /
&DEVC XB=1.8,1.9,0.0,0.1,0.2,0.3, QUANTITY='MASS FRACTION', STATISTICS='MEAN', SPEC_ID='OXYGEN', ID='O2_20' /
&DEVC XB=1.8,1.9,0.0,0.1,0.2,0.3, QUANTITY='MASS FRACTION', STATISTICS='MEAN', SPEC_ID='METHANE', ID='METHANE_20' /

&MESH IJK=8,8,8, XB=0.0,0.1,0.0,0.1,0.4,0.5 /
&INIT XB=0.0,0.1,0.0,0.1,0.4,0.5, SPEC_ID(1)='METHANE', MASS_FRACTION(1) = 0.802928530819, SPEC_ID(2)='OXYGEN', MASS_FRACTION(2)= 0.0453264379117, TEMPERATURE = 1107.14673031 /
&ZONE XB=0.0,0.1,0.0,0.1,0.4,0.5, /
&DEVC XB=0.0,0.1,0.0,0.1,0.4,0.5, QUANTITY='HRRPUV', STATISTICS='VOLUME INTEGRAL', ID='HRR21' /
&DEVC XB=0.0,0.1,0.0,0.1,0.4,0.5, QUANTITY='TEMPERATURE', STATISTICS='MEAN', ID='TEMP21' /
&DEVC XB=0.0,0.1,0.0,0.1,0.4,0.5, QUANTITY='MASS FRACTION', STATISTICS='MEAN', SPEC_ID='OXYGEN', ID='O2_21' /
&DEVC XB=0.0,0.1,0.0,0.1,0.4,0.5, QUANTITY='MASS FRACTION', STATISTICS='MEAN', SPEC_ID='METHANE', ID='METHANE_21' /

&MESH IJK=8,8,8, XB=0.2,0.3,0.0,0.1,0.4,0.5 /
&INIT XB=0.2,0.3,0.0,0.1,0.4,0.5, SPEC_ID(1)='METHANE', MASS_FRACTION(1) = 0.351070998819, SPEC_ID(2)='OXYGEN', MASS_FRACTION(2)= 0.149253670272, TEMPERATURE = 1542.01097435 /
&ZONE XB=0.2,0.3,0.0,0.1,0.4,0.5, /
&DEVC XB=0.2,0.3,0.0,0.1,0.4,0.5, QUANTITY='HRRPUV', STATISTICS='VOLUME INTEGRAL', ID='HRR22' /
&DEVC XB=0.2,0.3,0.0,0.1,0.4,0.5, QUANTITY='TEMPERATURE', STATISTICS='MEAN', ID='TEMP22' /
&DEVC XB=0.2,0.3,0.0,0.1,0.4,0.5, QUANTITY='MASS FRACTION', STATISTICS='MEAN', SPEC_ID='OXYGEN', ID='O2_22' /
&DEVC XB=0.2,0.3,0.0,0.1,0.4,0.5, QUANTITY='MASS FRACTION', STATISTICS='MEAN', SPEC_ID='METHANE', ID='METHANE_22' /

&MESH IJK=8,8,8, XB=0.4,0.5,0.0,0.1,0.4,0.5 /
&INIT XB=0.4,0.5,0.0,0.1,0.4,0.5, SPEC_ID(1)='METHANE', MASS_FRACTION(1) = 0.849272450185, SPEC_ID(2)='OXYGEN', MASS_FRACTION(2)= 0.0346673364576, TEMPERATURE = 394.534523287 /
&ZONE XB=0.4,0.5,0.0,0.1,0.4,0.5, /
&DEVC XB=0.4,0.5,0.0,0.1,0.4,0.5, QUANTITY='HRRPUV', STATISTICS='VOLUME INTEGRAL', ID='HRR23' /
&DEVC XB=0.4,0.5,0.0,0.1,0.4,0.5, QUANTITY='TEMPERATURE', STATISTICS='MEAN', ID='TEMP23' /
&DEVC XB=0.4,0.5,0.0,0.1,0.4,0.5, QUANTITY='MASS FRACTION', STATISTICS='MEAN', SPEC_ID='OXYGEN', ID='O2_23' /
&DEVC XB=0.4,0.5,0.0,0.1,0.4,0.5, QUANTITY='MASS FRACTION', STATISTICS='MEAN', SPEC_ID='METHANE', ID='METHANE_23' /

&MESH IJK=8,8,8, XB=0.6,0.7,0.0,0.1,0.4,0.5 /
&INIT XB=0.6,0.7,0.0,0.1,0.4,0.5, SPEC_ID(1)='METHANE', MASS_FRACTION(1) = 0.991807216383, SPEC_ID(2)='OXYGEN', MASS_FRACTION(2)= 0.001884340232, TEMPERATURE = 1188.87429929 /
&ZONE XB=0.6,0.7,0.0,0.1,0.4,0.5, /
&DEVC XB=0.6,0.7,0.0,0.1,0.4,0.5, QUANTITY='HRRPUV', STATISTICS='VOLUME INTEGRAL', ID='HRR24' /
&DEVC XB=0.6,0.7,0.0,0.1,0.4,0.5, QUANTITY='TEMPERATURE', STATISTICS='MEAN', ID='TEMP24' /
&DEVC XB=0.6,0.7,0.0,0.1,0.4,0.5, QUANTITY='MASS FRACTION', STATISTICS='MEAN', SPEC_ID='OXYGEN', ID='O2_24' /
&DEVC XB=0.6,0.7,0.0,0.1,0.4,0.5, QUANTITY='MASS FRACTION', STATISTICS='MEAN', SPEC_ID='METHANE', ID='METHANE_24' /

&MESH IJK=8,8,8, XB=0.8,0.9,0.0,0.1,0.4,0.5 /
&INIT XB=0.8,0.9,0.0,0.1,0.4,0.5, SPEC_ID(1)='METHANE', MASS_FRACTION(1) = 0.484323954463, SPEC_ID(2)='OXYGEN', MASS_FRACTION(2)= 0.118605490473, TEMPERATURE = 562.449652987 /
&ZONE XB=0.8,0.9,0.0,0.1,0.4,0.5, /
&DEVC XB=0.8,0.9,0.0,0.1,0.4,0.5, QUANTITY='HRRPUV', STATISTICS='VOLUME INTEGRAL', ID='HRR25' /
&DEVC XB=0.8,0.9,0.0,0.1,0.4,0.5, QUANTITY='TEMPERATURE', STATISTICS='MEAN', ID='TEMP25' /
&DEVC XB=0.8,0.9,0.0,0.1,0.4,0.5, QUANTITY='MASS FRACTION', STATISTICS='MEAN', SPEC_ID='OXYGEN', ID='O2_25' /
&DEVC XB=0.8,0.9,0.0,0.1,0.4,0.5, QUANTITY='MASS FRACTION', STATISTICS='MEAN', SPEC_ID='METHANE', ID='METHANE_25' /

&MESH IJK=8,8,8, XB=1.0,1.1,0.0,0.1,0.4,0.5 /
&INIT XB=1.0,1.1,0.0,0.1,0.4,0.5, SPEC_ID(1)='METHANE', MASS_FRACTION(1) = 0.356364595358, SPEC_ID(2)='OXYGEN', MASS_FRACTION(2)= 0.148036143068, TEMPERATURE = 70.0071864572 /
&ZONE XB=1.0,1.1,0.0,0.1,0.4,0.5, /
&DEVC XB=1.0,1.1,0.0,0.1,0.4,0.5, QUANTITY='HRRPUV', STATISTICS='VOLUME INTEGRAL', ID='HRR26' /
&DEVC XB=1.0,1.1,0.0,0.1,0.4,0.5, QUANTITY='TEMPERATURE', STATISTICS='MEAN', ID='TEMP26' /
&DEVC XB=1.0,1.1,0.0,0.1,0.4,0.5, QUANTITY='MASS FRACTION', STATISTICS='MEAN', SPEC_ID='OXYGEN', ID='O2_26' /
&DEVC XB=1.0,1.1,0.0,0.1,0.4,0.5, QUANTITY='MASS FRACTION', STATISTICS='MEAN', SPEC_ID='METHANE', ID='METHANE_26' /

&MESH IJK=8,8,8, XB=1.2,1.3,0.0,0.1,0.4,0.5 /
&INIT XB=1.2,1.3,0.0,0.1,0.4,0.5, SPEC_ID(1)='METHANE', MASS_FRACTION(1) = 0.0543710850399, SPEC_ID(2)='OXYGEN', MASS_FRACTION(2)= 0.217494650441, TEMPERATURE = 1421.27336469 /
&ZONE XB=1.2,1.3,0.0,0.1,0.4,0.5, /
&DEVC XB=1.2,1.3,0.0,0.1,0.4,0.5, QUANTITY='HRRPUV', STATISTICS='VOLUME INTEGRAL', ID='HRR27' /
&DEVC XB=1.2,1.3,0.0,0.1,0.4,0.5, QUANTITY='TEMPERATURE', STATISTICS='MEAN', ID='TEMP27' /
&DEVC XB=1.2,1.3,0.0,0.1,0.4,0.5, QUANTITY='MASS FRACTION', STATISTICS='MEAN', SPEC_ID='OXYGEN', ID='O2_27' /
&DEVC XB=1.2,1.3,0.0,0.1,0.4,0.5, QUANTITY='MASS FRACTION', STATISTICS='MEAN', SPEC_ID='METHANE', ID='METHANE_27' /

&MESH IJK=8,8,8, XB=1.4,1.5,0.0,0.1,0.4,0.5 /
&INIT XB=1.4,1.5,0.0,0.1,0.4,0.5, SPEC_ID(1)='METHANE', MASS_FRACTION(1) = 0.914077060021, SPEC_ID(2)='OXYGEN', MASS_FRACTION(2)= 0.0197622761951, TEMPERATURE = 762.386788507 /
&ZONE XB=1.4,1.5,0.0,0.1,0.4,0.5, /
&DEVC XB=1.4,1.5,0.0,0.1,0.4,0.5, QUANTITY='HRRPUV', STATISTICS='VOLUME INTEGRAL', ID='HRR28' /
&DEVC XB=1.4,1.5,0.0,0.1,0.4,0.5, QUANTITY='TEMPERATURE', STATISTICS='MEAN', ID='TEMP28' /
&DEVC XB=1.4,1.5,0.0,0.1,0.4,0.5, QUANTITY='MASS FRACTION', STATISTICS='MEAN', SPEC_ID='OXYGEN', ID='O2_28' /
&DEVC XB=1.4,1.5,0.0,0.1,0.4,0.5, QUANTITY='MASS FRACTION', STATISTICS='MEAN', SPEC_ID='METHANE', ID='METHANE_28' /

&MESH IJK=8,8,8, XB=1.6,1.7,0.0,0.1,0.4,0.5 /
&INIT XB=1.6,1.7,0.0,0.1,0.4,0.5, SPEC_ID(1)='METHANE', MASS_FRACTION(1) = 0.704968741364, SPEC_ID(2)='OXYGEN', MASS_FRACTION(2)= 0.0678571894863, TEMPERATURE = 177.651241394 /
&ZONE XB=1.6,1.7,0.0,0.1,0.4,0.5, /
&DEVC XB=1.6,1.7,0.0,0.1,0.4,0.5, QUANTITY='HRRPUV', STATISTICS='VOLUME INTEGRAL', ID='HRR29' /
&DEVC XB=1.6,1.7,0.0,0.1,0.4,0.5, QUANTITY='TEMPERATURE', STATISTICS='MEAN', ID='TEMP29' /
&DEVC XB=1.6,1.7,0.0,0.1,0.4,0.5, QUANTITY='MASS FRACTION', STATISTICS='MEAN', SPEC_ID='OXYGEN', ID='O2_29' /
&DEVC XB=1.6,1.7,0.0,0.1,0.4,0.5, QUANTITY='MASS FRACTION', STATISTICS='MEAN', SPEC_ID='METHANE', ID='METHANE_29' /

&MESH IJK=8,8,8, XB=1.8,1.9,0.0,0.1,0.4,0.5 /
&INIT XB=1.8,1.9,0.0,0.1,0.4,0.5, SPEC_ID(1)='METHANE', MASS_FRACTION(1) = 0.438083604851, SPEC_ID(2)='OXYGEN', MASS_FRACTION(2)= 0.129240770884, TEMPERATURE = 1616.49278547 /
&ZONE XB=1.8,1.9,0.0,0.1,0.4,0.5, /
&DEVC XB=1.8,1.9,0.0,0.1,0.4,0.5, QUANTITY='HRRPUV', STATISTICS='VOLUME INTEGRAL', ID='HRR30' /
&DEVC XB=1.8,1.9,0.0,0.1,0.4,0.5, QUANTITY='TEMPERATURE', STATISTICS='MEAN', ID='TEMP30' /
&DEVC XB=1.8,1.9,0.0,0.1,0.4,0.5, QUANTITY='MASS FRACTION', STATISTICS='MEAN', SPEC_ID='OXYGEN', ID='O2_30' /
&DEVC XB=1.8,1.9,0.0,0.1,0.4,0.5, QUANTITY='MASS FRACTION', STATISTICS='MEAN', SPEC_ID='METHANE', ID='METHANE_30' /

&MESH IJK=8,8,8, XB=0.0,0.1,0.0,0.1,0.6,0.7 /
&INIT XB=0.0,0.1,0.0,0.1,0.6,0.7, SPEC_ID(1)='METHANE', MASS_FRACTION(1) = 0.968109025297, SPEC_ID(2)='OXYGEN', MASS_FRACTION(2)= 0.0073349241818, TEMPERATURE = 691.170587203 /
&ZONE XB=0.0,0.1,0.0,0.1,0.6,0.7, /
&DEVC XB=0.0,0.1,0.0,0.1,0.6,0.7, QUANTITY='HRRPUV', STATISTICS='VOLUME INTEGRAL', ID='HRR31' /
&DEVC XB=0.0,0.1,0.0,0.1,0.6,0.7, QUANTITY='TEMPERATURE', STATISTICS='MEAN', ID='TEMP31' /
&DEVC XB=0.0,0.1,0.0,0.1,0.6,0.7, QUANTITY='MASS FRACTION', STATISTICS='MEAN', SPEC_ID='OXYGEN', ID='O2_31' /
&DEVC XB=0.0,0.1,0.0,0.1,0.6,0.7, QUANTITY='MASS FRACTION', STATISTICS='MEAN', SPEC_ID='METHANE', ID='METHANE_31' /

&MESH IJK=8,8,8, XB=0.2,0.3,0.0,0.1,0.6,0.7 /
&INIT XB=0.2,0.3,0.0,0.1,0.6,0.7, SPEC_ID(1)='METHANE', MASS_FRACTION(1) = 0.723820838156, SPEC_ID(2)='OXYGEN', MASS_FRACTION(2)= 0.063521207224, TEMPERATURE = 1026.33379897 /
&ZONE XB=0.2,0.3,0.0,0.1,0.6,0.7, /
&DEVC XB=0.2,0.3,0.0,0.1,0.6,0.7, QUANTITY='HRRPUV', STATISTICS='VOLUME INTEGRAL', ID='HRR32' /
&DEVC XB=0.2,0.3,0.0,0.1,0.6,0.7, QUANTITY='TEMPERATURE', STATISTICS='MEAN', ID='TEMP32' /
&DEVC XB=0.2,0.3,0.0,0.1,0.6,0.7, QUANTITY='MASS FRACTION', STATISTICS='MEAN', SPEC_ID='OXYGEN', ID='O2_32' /
&DEVC XB=0.2,0.3,0.0,0.1,0.6,0.7, QUANTITY='MASS FRACTION', STATISTICS='MEAN', SPEC_ID='METHANE', ID='METHANE_32' /

&MESH IJK=8,8,8, XB=0.4,0.5,0.0,0.1,0.6,0.7 /
&INIT XB=0.4,0.5,0.0,0.1,0.6,0.7, SPEC_ID(1)='METHANE', MASS_FRACTION(1) = 0.656803307681, SPEC_ID(2)='OXYGEN', MASS_FRACTION(2)= 0.0789352392335, TEMPERATURE = 434.571100305 /
&ZONE XB=0.4,0.5,0.0,0.1,0.6,0.7, /
&DEVC XB=0.4,0.5,0.0,0.1,0.6,0.7, QUANTITY='HRRPUV', STATISTICS='VOLUME INTEGRAL', ID='HRR33' /
&DEVC XB=0.4,0.5,0.0,0.1,0.6,0.7, QUANTITY='TEMPERATURE', STATISTICS='MEAN', ID='TEMP33' /
&DEVC XB=0.4,0.5,0.0,0.1,0.6,0.7, QUANTITY='MASS FRACTION', STATISTICS='MEAN', SPEC_ID='OXYGEN', ID='O2_33' /
&DEVC XB=0.4,0.5,0.0,0.1,0.6,0.7, QUANTITY='MASS FRACTION', STATISTICS='MEAN', SPEC_ID='METHANE', ID='METHANE_33' /

&MESH IJK=8,8,8, XB=0.6,0.7,0.0,0.1,0.6,0.7 /
&INIT XB=0.6,0.7,0.0,0.1,0.6,0.7, SPEC_ID(1)='METHANE', MASS_FRACTION(1) = 0.514771588939, SPEC_ID(2)='OXYGEN', MASS_FRACTION(2)= 0.111602534544, TEMPERATURE = 1137.91050799 /
&ZONE XB=0.6,0.7,0.0,0.1,0.6,0.7, /
&DEVC XB=0.6,0.7,0.0,0.1,0.6,0.7, QUANTITY='HRRPUV', STATISTICS='VOLUME INTEGRAL', ID='HRR34' /
&DEVC XB=0.6,0.7,0.0,0.1,0.6,0.7, QUANTITY='TEMPERATURE', STATISTICS='MEAN', ID='TEMP34' /
&DEVC XB=0.6,0.7,0.0,0.1,0.6,0.7, QUANTITY='MASS FRACTION', STATISTICS='MEAN', SPEC_ID='OXYGEN', ID='O2_34' /
&DEVC XB=0.6,0.7,0.0,0.1,0.6,0.7, QUANTITY='MASS FRACTION', STATISTICS='MEAN', SPEC_ID='METHANE', ID='METHANE_34' /

&MESH IJK=8,8,8, XB=0.8,0.9,0.0,0.1,0.6,0.7 /
&INIT XB=0.8,0.9,0.0,0.1,0.6,0.7, SPEC_ID(1)='METHANE', MASS_FRACTION(1) = 0.877056257493, SPEC_ID(2)='OXYGEN', MASS_FRACTION(2)= 0.0282770607765, TEMPERATURE = 649.955222167 /
&ZONE XB=0.8,0.9,0.0,0.1,0.6,0.7, /
&DEVC XB=0.8,0.9,0.0,0.1,0.6,0.7, QUANTITY='HRRPUV', STATISTICS='VOLUME INTEGRAL', ID='HRR35' /
&DEVC XB=0.8,0.9,0.0,0.1,0.6,0.7, QUANTITY='TEMPERATURE', STATISTICS='MEAN', ID='TEMP35' /
&DEVC XB=0.8,0.9,0.0,0.1,0.6,0.7, QUANTITY='MASS FRACTION', STATISTICS='MEAN', SPEC_ID='OXYGEN', ID='O2_35' /
&DEVC XB=0.8,0.9,0.0,0.1,0.6,0.7, QUANTITY='MASS FRACTION', STATISTICS='MEAN', SPEC_ID='METHANE', ID='METHANE_35' /

&MESH IJK=8,8,8, XB=1.0,1.1,0.0,0.1,0.6,0.7 /
&INIT XB=1.0,1.1,0.0,0.1,0.6,0.7, SPEC_ID(1)='METHANE', MASS_FRACTION(1) = 0.0601741606944, SPEC_ID(2)='OXYGEN', MASS_FRACTION(2)= 0.21615994304, TEMPERATURE = 844.974885433 /
&ZONE XB=1.0,1.1,0.0,0.1,0.6,0.7, /
&DEVC XB=1.0,1.1,0.0,0.1,0.6,0.7, QUANTITY='HRRPUV', STATISTICS='VOLUME INTEGRAL', ID='HRR36' /
&DEVC XB=1.0,1.1,0.0,0.1,0.6,0.7, QUANTITY='TEMPERATURE', STATISTICS='MEAN', ID='TEMP36' /
&DEVC XB=1.0,1.1,0.0,0.1,0.6,0.7, QUANTITY='MASS FRACTION', STATISTICS='MEAN', SPEC_ID='OXYGEN', ID='O2_36' /
&DEVC XB=1.0,1.1,0.0,0.1,0.6,0.7, QUANTITY='MASS FRACTION', STATISTICS='MEAN', SPEC_ID='METHANE', ID='METHANE_36' /

&MESH IJK=8,8,8, XB=1.2,1.3,0.0,0.1,0.6,0.7 /
&INIT XB=1.2,1.3,0.0,0.1,0.6,0.7, SPEC_ID(1)='METHANE', MASS_FRACTION(1) = 0.471477646995, SPEC_ID(2)='OXYGEN', MASS_FRACTION(2)= 0.121560141191, TEMPERATURE = 709.715459407 /
&ZONE XB=1.2,1.3,0.0,0.1,0.6,0.7, /
&DEVC XB=1.2,1.3,0.0,0.1,0.6,0.7, QUANTITY='HRRPUV', STATISTICS='VOLUME INTEGRAL', ID='HRR37' /
&DEVC XB=1.2,1.3,0.0,0.1,0.6,0.7, QUANTITY='TEMPERATURE', STATISTICS='MEAN', ID='TEMP37' /
&DEVC XB=1.2,1.3,0.0,0.1,0.6,0.7, QUANTITY='MASS FRACTION', STATISTICS='MEAN', SPEC_ID='OXYGEN', ID='O2_37' /
&DEVC XB=1.2,1.3,0.0,0.1,0.6,0.7, QUANTITY='MASS FRACTION', STATISTICS='MEAN', SPEC_ID='METHANE', ID='METHANE_37' /

&MESH IJK=8,8,8, XB=1.4,1.5,0.0,0.1,0.6,0.7 /
&INIT XB=1.4,1.5,0.0,0.1,0.6,0.7, SPEC_ID(1)='METHANE', MASS_FRACTION(1) = 0.311016573938, SPEC_ID(2)='OXYGEN', MASS_FRACTION(2)= 0.158466187994, TEMPERATURE = 594.305825059 /
&ZONE XB=1.4,1.5,0.0,0.1,0.6,0.7, /
&DEVC XB=1.4,1.5,0.0,0.1,0.6,0.7, QUANTITY='HRRPUV', STATISTICS='VOLUME INTEGRAL', ID='HRR38' /
&DEVC XB=1.4,1.5,0.0,0.1,0.6,0.7, QUANTITY='TEMPERATURE', STATISTICS='MEAN', ID='TEMP38' /
&DEVC XB=1.4,1.5,0.0,0.1,0.6,0.7, QUANTITY='MASS FRACTION', STATISTICS='MEAN', SPEC_ID='OXYGEN', ID='O2_38' /
&DEVC XB=1.4,1.5,0.0,0.1,0.6,0.7, QUANTITY='MASS FRACTION', STATISTICS='MEAN', SPEC_ID='METHANE', ID='METHANE_38' /

&MESH IJK=8,8,8, XB=1.6,1.7,0.0,0.1,0.6,0.7 /
&INIT XB=1.6,1.7,0.0,0.1,0.6,0.7, SPEC_ID(1)='METHANE', MASS_FRACTION(1) = 0.194693071729, SPEC_ID(2)='OXYGEN', MASS_FRACTION(2)= 0.185220593502, TEMPERATURE = 481.745126299 /
&ZONE XB=1.6,1.7,0.0,0.1,0.6,0.7, /
&DEVC XB=1.6,1.7,0.0,0.1,0.6,0.7, QUANTITY='HRRPUV', STATISTICS='VOLUME INTEGRAL', ID='HRR39' /
&DEVC XB=1.6,1.7,0.0,0.1,0.6,0.7, QUANTITY='TEMPERATURE', STATISTICS='MEAN', ID='TEMP39' /
&DEVC XB=1.6,1.7,0.0,0.1,0.6,0.7, QUANTITY='MASS FRACTION', STATISTICS='MEAN', SPEC_ID='OXYGEN', ID='O2_39' /
&DEVC XB=1.6,1.7,0.0,0.1,0.6,0.7, QUANTITY='MASS FRACTION', STATISTICS='MEAN', SPEC_ID='METHANE', ID='METHANE_39' /

&MESH IJK=8,8,8, XB=1.8,1.9,0.0,0.1,0.6,0.7 /
&INIT XB=1.8,1.9,0.0,0.1,0.6,0.7, SPEC_ID(1)='METHANE', MASS_FRACTION(1) = 0.151049538869, SPEC_ID(2)='OXYGEN', MASS_FRACTION(2)= 0.19525860606, TEMPERATURE = 1332.18303819 /
&ZONE XB=1.8,1.9,0.0,0.1,0.6,0.7, /
&DEVC XB=1.8,1.9,0.0,0.1,0.6,0.7, QUANTITY='HRRPUV', STATISTICS='VOLUME INTEGRAL', ID='HRR40' /
&DEVC XB=1.8,1.9,0.0,0.1,0.6,0.7, QUANTITY='TEMPERATURE', STATISTICS='MEAN', ID='TEMP40' /
&DEVC XB=1.8,1.9,0.0,0.1,0.6,0.7, QUANTITY='MASS FRACTION', STATISTICS='MEAN', SPEC_ID='OXYGEN', ID='O2_40' /
&DEVC XB=1.8,1.9,0.0,0.1,0.6,0.7, QUANTITY='MASS FRACTION', STATISTICS='MEAN', SPEC_ID='METHANE', ID='METHANE_40' /

&MESH IJK=8,8,8, XB=0.0,0.1,0.0,0.1,0.8,0.9 /
&INIT XB=0.0,0.1,0.0,0.1,0.8,0.9, SPEC_ID(1)='METHANE', MASS_FRACTION(1) = 0.901420404962, SPEC_ID(2)='OXYGEN', MASS_FRACTION(2)= 0.0226733068587, TEMPERATURE = 435.49926221 /
&ZONE XB=0.0,0.1,0.0,0.1,0.8,0.9, /
&DEVC XB=0.0,0.1,0.0,0.1,0.8,0.9, QUANTITY='HRRPUV', STATISTICS='VOLUME INTEGRAL', ID='HRR41' /
&DEVC XB=0.0,0.1,0.0,0.1,0.8,0.9, QUANTITY='TEMPERATURE', STATISTICS='MEAN', ID='TEMP41' /
&DEVC XB=0.0,0.1,0.0,0.1,0.8,0.9, QUANTITY='MASS FRACTION', STATISTICS='MEAN', SPEC_ID='OXYGEN', ID='O2_41' /
&DEVC XB=0.0,0.1,0.0,0.1,0.8,0.9, QUANTITY='MASS FRACTION', STATISTICS='MEAN', SPEC_ID='METHANE', ID='METHANE_41' /

&MESH IJK=8,8,8, XB=0.2,0.3,0.0,0.1,0.8,0.9 /
&INIT XB=0.2,0.3,0.0,0.1,0.8,0.9, SPEC_ID(1)='METHANE', MASS_FRACTION(1) = 0.0706582953484, SPEC_ID(2)='OXYGEN', MASS_FRACTION(2)= 0.21374859207, TEMPERATURE = 1661.02117469 /
&ZONE XB=0.2,0.3,0.0,0.1,0.8,0.9, /
&DEVC XB=0.2,0.3,0.0,0.1,0.8,0.9, QUANTITY='HRRPUV', STATISTICS='VOLUME INTEGRAL', ID='HRR42' /
&DEVC XB=0.2,0.3,0.0,0.1,0.8,0.9, QUANTITY='TEMPERATURE', STATISTICS='MEAN', ID='TEMP42' /
&DEVC XB=0.2,0.3,0.0,0.1,0.8,0.9, QUANTITY='MASS FRACTION', STATISTICS='MEAN', SPEC_ID='OXYGEN', ID='O2_42' /
&DEVC XB=0.2,0.3,0.0,0.1,0.8,0.9, QUANTITY='MASS FRACTION', STATISTICS='MEAN', SPEC_ID='METHANE', ID='METHANE_42' /

&MESH IJK=8,8,8, XB=0.4,0.5,0.0,0.1,0.8,0.9 /
&INIT XB=0.4,0.5,0.0,0.1,0.8,0.9, SPEC_ID(1)='METHANE', MASS_FRACTION(1) = 0.958387716954, SPEC_ID(2)='OXYGEN', MASS_FRACTION(2)= 0.00957082510055, TEMPERATURE = 1596.88714436 /
&ZONE XB=0.4,0.5,0.0,0.1,0.8,0.9, /
&DEVC XB=0.4,0.5,0.0,0.1,0.8,0.9, QUANTITY='HRRPUV', STATISTICS='VOLUME INTEGRAL', ID='HRR43' /
&DEVC XB=0.4,0.5,0.0,0.1,0.8,0.9, QUANTITY='TEMPERATURE', STATISTICS='MEAN', ID='TEMP43' /
&DEVC XB=0.4,0.5,0.0,0.1,0.8,0.9, QUANTITY='MASS FRACTION', STATISTICS='MEAN', SPEC_ID='OXYGEN', ID='O2_43' /
&DEVC XB=0.4,0.5,0.0,0.1,0.8,0.9, QUANTITY='MASS FRACTION', STATISTICS='MEAN', SPEC_ID='METHANE', ID='METHANE_43' /

&MESH IJK=8,8,8, XB=0.6,0.7,0.0,0.1,0.8,0.9 /
&INIT XB=0.6,0.7,0.0,0.1,0.8,0.9, SPEC_ID(1)='METHANE', MASS_FRACTION(1) = 0.699889739578, SPEC_ID(2)='OXYGEN', MASS_FRACTION(2)= 0.0690253598971, TEMPERATURE = 493.06975211 /
&ZONE XB=0.6,0.7,0.0,0.1,0.8,0.9, /
&DEVC XB=0.6,0.7,0.0,0.1,0.8,0.9, QUANTITY='HRRPUV', STATISTICS='VOLUME INTEGRAL', ID='HRR44' /
&DEVC XB=0.6,0.7,0.0,0.1,0.8,0.9, QUANTITY='TEMPERATURE', STATISTICS='MEAN', ID='TEMP44' /