&HEAD CHID='extinction_2', TITLE='Test_Case_For_Extinction_Models' /
&MISC GVEC(3) = 0.0, STRATIFICATION=.FALSE. /
&SURF ID= 'LINER', ADIABATIC=.TRUE., DEFAULT=.TRUE. /
&RADI RADIATION=.FALSE. / 
&TIME T_END=0.25 DT=0.01, LOCK_TIME_STEP=.TRUE. /

&SPEC ID='NITROGEN', BACKGROUND=.TRUE./
&SPEC ID='METHANE' /
&SPEC ID='OXYGEN' /
&SPEC ID='WATER VAPOR' /
&SPEC ID='CARBON DIOXIDE' /

&REAC FUEL='METHANE'
      RADIATIVE_FRACTION=0.0
      SPEC_ID_NU='METHANE','OXYGEN','CARBON DIOXIDE','WATER VAPOR' 
      NU=-1,-2,1,2 /

&COMB FIXED_MIX_TIME=0.0025, EXTINCTION_MODEL='EXTINCTION 2' /  

&MESH IJK=4,4,4, XB=0.0,0.1,0.0,0.1,0.0,0.1 /
&INIT XB=0.0,0.1,0.0,0.1,0.0,0.1, SPEC_ID(1)='METHANE', MASS_FRACTION(1) = 0.0029, SPEC_ID(2)='OXYGEN', MASS_FRACTION(2)= 0.0115, TEMPERATURE = 26.85 /
&DEVC XB=0.0,0.1,0.0,0.1,0.0,0.1, QUANTITY='HRRPUV', SPATIAL_STATISTIC='VOLUME INTEGRAL', ID='HRR1' /
&DEVC XB=0.0,0.1,0.0,0.1,0.0,0.1, QUANTITY='TEMPERATURE', SPATIAL_STATISTIC='MEAN', ID='TEMP1' /
&DEVC XB=0.0,0.1,0.0,0.1,0.0,0.1, QUANTITY='MASS FRACTION', SPATIAL_STATISTIC='MEAN', SPEC_ID='OXYGEN', ID='O2_1' /
&DEVC XB=0.0,0.1,0.0,0.1,0.0,0.1, QUANTITY='MASS FRACTION', SPATIAL_STATISTIC='MEAN', SPEC_ID='METHANE', ID='METHANE_1' /

&MESH IJK=4,4,4, XB=0.2,0.3,0.0,0.1,0.0,0.1 /
&INIT XB=0.2,0.3,0.0,0.1,0.0,0.1, SPEC_ID(1)='METHANE', MASS_FRACTION(1) = 0.0029, SPEC_ID(2)='OXYGEN', MASS_FRACTION(2)= 0.0115, TEMPERATURE = 201.85 /
&DEVC XB=0.2,0.3,0.0,0.1,0.0,0.1, QUANTITY='HRRPUV', SPATIAL_STATISTIC='VOLUME INTEGRAL', ID='HRR2' /
&DEVC XB=0.2,0.3,0.0,0.1,0.0,0.1, QUANTITY='TEMPERATURE', SPATIAL_STATISTIC='MEAN', ID='TEMP2' /
&DEVC XB=0.2,0.3,0.0,0.1,0.0,0.1, QUANTITY='MASS FRACTION', SPATIAL_STATISTIC='MEAN', SPEC_ID='OXYGEN', ID='O2_2' /
&DEVC XB=0.2,0.3,0.0,0.1,0.0,0.1, QUANTITY='MASS FRACTION', SPATIAL_STATISTIC='MEAN', SPEC_ID='METHANE', ID='METHANE_2' /

&MESH IJK=4,4,4, XB=0.4,0.5,0.0,0.1,0.0,0.1 /
&INIT XB=0.4,0.5,0.0,0.1,0.0,0.1, SPEC_ID(1)='METHANE', MASS_FRACTION(1) = 0.0029, SPEC_ID(2)='OXYGEN', MASS_FRACTION(2)= 0.0115, TEMPERATURE = 376.85 /
&DEVC XB=0.4,0.5,0.0,0.1,0.0,0.1, QUANTITY='HRRPUV', SPATIAL_STATISTIC='VOLUME INTEGRAL', ID='HRR3' /
&DEVC XB=0.4,0.5,0.0,0.1,0.0,0.1, QUANTITY='TEMPERATURE', SPATIAL_STATISTIC='MEAN', ID='TEMP3' /
&DEVC XB=0.4,0.5,0.0,0.1,0.0,0.1, QUANTITY='MASS FRACTION', SPATIAL_STATISTIC='MEAN', SPEC_ID='OXYGEN', ID='O2_3' /
&DEVC XB=0.4,0.5,0.0,0.1,0.0,0.1, QUANTITY='MASS FRACTION', SPATIAL_STATISTIC='MEAN', SPEC_ID='METHANE', ID='METHANE_3' /

&MESH IJK=4,4,4, XB=0.6,0.7,0.0,0.1,0.0,0.1 /
&INIT XB=0.6,0.7,0.0,0.1,0.0,0.1, SPEC_ID(1)='METHANE', MASS_FRACTION(1) = 0.0029, SPEC_ID(2)='OXYGEN', MASS_FRACTION(2)= 0.0115, TEMPERATURE = 551.85 /
&DEVC XB=0.6,0.7,0.0,0.1,0.0,0.1, QUANTITY='HRRPUV', SPATIAL_STATISTIC='VOLUME INTEGRAL', ID='HRR4' /
&DEVC XB=0.6,0.7,0.0,0.1,0.0,0.1, QUANTITY='TEMPERATURE', SPATIAL_STATISTIC='MEAN', ID='TEMP4' /
&DEVC XB=0.6,0.7,0.0,0.1,0.0,0.1, QUANTITY='MASS FRACTION', SPATIAL_STATISTIC='MEAN', SPEC_ID='OXYGEN', ID='O2_4' /
&DEVC XB=0.6,0.7,0.0,0.1,0.0,0.1, QUANTITY='MASS FRACTION', SPATIAL_STATISTIC='MEAN', SPEC_ID='METHANE', ID='METHANE_4' /

&MESH IJK=4,4,4, XB=0.8,0.9,0.0,0.1,0.0,0.1 /
&INIT XB=0.8,0.9,0.0,0.1,0.0,0.1, SPEC_ID(1)='METHANE', MASS_FRACTION(1) = 0.0029, SPEC_ID(2)='OXYGEN', MASS_FRACTION(2)= 0.0115, TEMPERATURE = 726.85 /
&DEVC XB=0.8,0.9,0.0,0.1,0.0,0.1, QUANTITY='HRRPUV', SPATIAL_STATISTIC='VOLUME INTEGRAL', ID='HRR5' /
&DEVC XB=0.8,0.9,0.0,0.1,0.0,0.1, QUANTITY='TEMPERATURE', SPATIAL_STATISTIC='MEAN', ID='TEMP5' /
&DEVC XB=0.8,0.9,0.0,0.1,0.0,0.1, QUANTITY='MASS FRACTION', SPATIAL_STATISTIC='MEAN', SPEC_ID='OXYGEN', ID='O2_5' /
&DEVC XB=0.8,0.9,0.0,0.1,0.0,0.1, QUANTITY='MASS FRACTION', SPATIAL_STATISTIC='MEAN', SPEC_ID='METHANE', ID='METHANE_5' /

&MESH IJK=4,4,4, XB=1.0,1.1,0.0,0.1,0.0,0.1 /
&INIT XB=1.0,1.1,0.0,0.1,0.0,0.1, SPEC_ID(1)='METHANE', MASS_FRACTION(1) = 0.0029, SPEC_ID(2)='OXYGEN', MASS_FRACTION(2)= 0.0115, TEMPERATURE = 901.85 /
&DEVC XB=1.0,1.1,0.0,0.1,0.0,0.1, QUANTITY='HRRPUV', SPATIAL_STATISTIC='VOLUME INTEGRAL', ID='HRR6' /
&DEVC XB=1.0,1.1,0.0,0.1,0.0,0.1, QUANTITY='TEMPERATURE', SPATIAL_STATISTIC='MEAN', ID='TEMP6' /
&DEVC XB=1.0,1.1,0.0,0.1,0.0,0.1, QUANTITY='MASS FRACTION', SPATIAL_STATISTIC='MEAN', SPEC_ID='OXYGEN', ID='O2_6' /
&DEVC XB=1.0,1.1,0.0,0.1,0.0,0.1, QUANTITY='MASS FRACTION', SPATIAL_STATISTIC='MEAN', SPEC_ID='METHANE', ID='METHANE_6' /

&MESH IJK=4,4,4, XB=1.2,1.3,0.0,0.1,0.0,0.1 /
&INIT XB=1.2,1.3,0.0,0.1,0.0,0.1, SPEC_ID(1)='METHANE', MASS_FRACTION(1) = 0.0029, SPEC_ID(2)='OXYGEN', MASS_FRACTION(2)= 0.0115, TEMPERATURE = 1076.85 /
&DEVC XB=1.2,1.3,0.0,0.1,0.0,0.1, QUANTITY='HRRPUV', SPATIAL_STATISTIC='VOLUME INTEGRAL', ID='HRR7' /
&DEVC XB=1.2,1.3,0.0,0.1,0.0,0.1, QUANTITY='TEMPERATURE', SPATIAL_STATISTIC='MEAN', ID='TEMP7' /
&DEVC XB=1.2,1.3,0.0,0.1,0.0,0.1, QUANTITY='MASS FRACTION', SPATIAL_STATISTIC='MEAN', SPEC_ID='OXYGEN', ID='O2_7' /
&DEVC XB=1.2,1.3,0.0,0.1,0.0,0.1, QUANTITY='MASS FRACTION', SPATIAL_STATISTIC='MEAN', SPEC_ID='METHANE', ID='METHANE_7' /

&MESH IJK=4,4,4, XB=1.4,1.5,0.0,0.1,0.0,0.1 /
&INIT XB=1.4,1.5,0.0,0.1,0.0,0.1, SPEC_ID(1)='METHANE', MASS_FRACTION(1) = 0.0029, SPEC_ID(2)='OXYGEN', MASS_FRACTION(2)= 0.0115, TEMPERATURE = 1251.85 /
&DEVC XB=1.4,1.5,0.0,0.1,0.0,0.1, QUANTITY='HRRPUV', SPATIAL_STATISTIC='VOLUME INTEGRAL', ID='HRR8' /
&DEVC XB=1.4,1.5,0.0,0.1,0.0,0.1, QUANTITY='TEMPERATURE', SPATIAL_STATISTIC='MEAN', ID='TEMP8' /
&DEVC XB=1.4,1.5,0.0,0.1,0.0,0.1, QUANTITY='MASS FRACTION', SPATIAL_STATISTIC='MEAN', SPEC_ID='OXYGEN', ID='O2_8' /
&DEVC XB=1.4,1.5,0.0,0.1,0.0,0.1, QUANTITY='MASS FRACTION', SPATIAL_STATISTIC='MEAN', SPEC_ID='METHANE', ID='METHANE_8' /

&MESH IJK=4,4,4, XB=1.6,1.7,0.0,0.1,0.0,0.1 /
&INIT XB=1.6,1.7,0.0,0.1,0.0,0.1, SPEC_ID(1)='METHANE', MASS_FRACTION(1) = 0.0029, SPEC_ID(2)='OXYGEN', MASS_FRACTION(2)= 0.0115, TEMPERATURE = 1426.85 /
&DEVC XB=1.6,1.7,0.0,0.1,0.0,0.1, QUANTITY='HRRPUV', SPATIAL_STATISTIC='VOLUME INTEGRAL', ID='HRR9' /
&DEVC XB=1.6,1.7,0.0,0.1,0.0,0.1, QUANTITY='TEMPERATURE', SPATIAL_STATISTIC='MEAN', ID='TEMP9' /
&DEVC XB=1.6,1.7,0.0,0.1,0.0,0.1, QUANTITY='MASS FRACTION', SPATIAL_STATISTIC='MEAN', SPEC_ID='OXYGEN', ID='O2_9' /
&DEVC XB=1.6,1.7,0.0,0.1,0.0,0.1, QUANTITY='MASS FRACTION', SPATIAL_STATISTIC='MEAN', SPEC_ID='METHANE', ID='METHANE_9' /

&MESH IJK=4,4,4, XB=1.8,1.9,0.0,0.1,0.0,0.1 /
&INIT XB=1.8,1.9,0.0,0.1,0.0,0.1, SPEC_ID(1)='METHANE', MASS_FRACTION(1) = 0.0029, SPEC_ID(2)='OXYGEN', MASS_FRACTION(2)= 0.0115, TEMPERATURE = 1601.85 /
&DEVC XB=1.8,1.9,0.0,0.1,0.0,0.1, QUANTITY='HRRPUV', SPATIAL_STATISTIC='VOLUME INTEGRAL', ID='HRR10' /
&DEVC XB=1.8,1.9,0.0,0.1,0.0,0.1, QUANTITY='TEMPERATURE', SPATIAL_STATISTIC='MEAN', ID='TEMP10' /
&DEVC XB=1.8,1.9,0.0,0.1,0.0,0.1, QUANTITY='MASS FRACTION', SPATIAL_STATISTIC='MEAN', SPEC_ID='OXYGEN', ID='O2_10' /
&DEVC XB=1.8,1.9,0.0,0.1,0.0,0.1, QUANTITY='MASS FRACTION', SPATIAL_STATISTIC='MEAN', SPEC_ID='METHANE', ID='METHANE_10' /

&MESH IJK=4,4,4, XB=0.0,0.1,0.0,0.1,0.2,0.3 /
&INIT XB=0.0,0.1,0.0,0.1,0.2,0.3, SPEC_ID(1)='METHANE', MASS_FRACTION(1) = 0.0086, SPEC_ID(2)='OXYGEN', MASS_FRACTION(2)= 0.0345, TEMPERATURE = 26.85 /
&DEVC XB=0.0,0.1,0.0,0.1,0.2,0.3, QUANTITY='HRRPUV', SPATIAL_STATISTIC='VOLUME INTEGRAL', ID='HRR11' /
&DEVC XB=0.0,0.1,0.0,0.1,0.2,0.3, QUANTITY='TEMPERATURE', SPATIAL_STATISTIC='MEAN', ID='TEMP11' /
&DEVC XB=0.0,0.1,0.0,0.1,0.2,0.3, QUANTITY='MASS FRACTION', SPATIAL_STATISTIC='MEAN', SPEC_ID='OXYGEN', ID='O2_11' /
&DEVC XB=0.0,0.1,0.0,0.1,0.2,0.3, QUANTITY='MASS FRACTION', SPATIAL_STATISTIC='MEAN', SPEC_ID='METHANE', ID='METHANE_11' /

&MESH IJK=4,4,4, XB=0.2,0.3,0.0,0.1,0.2,0.3 /
&INIT XB=0.2,0.3,0.0,0.1,0.2,0.3, SPEC_ID(1)='METHANE', MASS_FRACTION(1) = 0.0086, SPEC_ID(2)='OXYGEN', MASS_FRACTION(2)= 0.0345, TEMPERATURE = 201.85 /
&DEVC XB=0.2,0.3,0.0,0.1,0.2,0.3, QUANTITY='HRRPUV', SPATIAL_STATISTIC='VOLUME INTEGRAL', ID='HRR12' /
&DEVC XB=0.2,0.3,0.0,0.1,0.2,0.3, QUANTITY='TEMPERATURE', SPATIAL_STATISTIC='MEAN', ID='TEMP12' /
&DEVC XB=0.2,0.3,0.0,0.1,0.2,0.3, QUANTITY='MASS FRACTION', SPATIAL_STATISTIC='MEAN', SPEC_ID='OXYGEN', ID='O2_12' /
&DEVC XB=0.2,0.3,0.0,0.1,0.2,0.3, QUANTITY='MASS FRACTION', SPATIAL_STATISTIC='MEAN', SPEC_ID='METHANE', ID='METHANE_12' /

&MESH IJK=4,4,4, XB=0.4,0.5,0.0,0.1,0.2,0.3 /
&INIT XB=0.4,0.5,0.0,0.1,0.2,0.3, SPEC_ID(1)='METHANE', MASS_FRACTION(1) = 0.0086, SPEC_ID(2)='OXYGEN', MASS_FRACTION(2)= 0.0345, TEMPERATURE = 376.85 /
&DEVC XB=0.4,0.5,0.0,0.1,0.2,0.3, QUANTITY='HRRPUV', SPATIAL_STATISTIC='VOLUME INTEGRAL', ID='HRR13' /
&DEVC XB=0.4,0.5,0.0,0.1,0.2,0.3, QUANTITY='TEMPERATURE', SPATIAL_STATISTIC='MEAN', ID='TEMP13' /
&DEVC XB=0.4,0.5,0.0,0.1,0.2,0.3, QUANTITY='MASS FRACTION', SPATIAL_STATISTIC='MEAN', SPEC_ID='OXYGEN', ID='O2_13' /
&DEVC XB=0.4,0.5,0.0,0.1,0.2,0.3, QUANTITY='MASS FRACTION', SPATIAL_STATISTIC='MEAN', SPEC_ID='METHANE', ID='METHANE_13' /

&MESH IJK=4,4,4, XB=0.6,0.7,0.0,0.1,0.2,0.3 /
&INIT XB=0.6,0.7,0.0,0.1,0.2,0.3, SPEC_ID(1)='METHANE', MASS_FRACTION(1) = 0.0086, SPEC_ID(2)='OXYGEN', MASS_FRACTION(2)= 0.0345, TEMPERATURE = 551.85 /
&DEVC XB=0.6,0.7,0.0,0.1,0.2,0.3, QUANTITY='HRRPUV', SPATIAL_STATISTIC='VOLUME INTEGRAL', ID='HRR14' /
&DEVC XB=0.6,0.7,0.0,0.1,0.2,0.3, QUANTITY='TEMPERATURE', SPATIAL_STATISTIC='MEAN', ID='TEMP14' /
&DEVC XB=0.6,0.7,0.0,0.1,0.2,0.3, QUANTITY='MASS FRACTION', SPATIAL_STATISTIC='MEAN', SPEC_ID='OXYGEN', ID='O2_14' /
&DEVC XB=0.6,0.7,0.0,0.1,0.2,0.3, QUANTITY='MASS FRACTION', SPATIAL_STATISTIC='MEAN', SPEC_ID='METHANE', ID='METHANE_14' /

&MESH IJK=4,4,4, XB=0.8,0.9,0.0,0.1,0.2,0.3 /
&INIT XB=0.8,0.9,0.0,0.1,0.2,0.3, SPEC_ID(1)='METHANE', MASS_FRACTION(1) = 0.0086, SPEC_ID(2)='OXYGEN', MASS_FRACTION(2)= 0.0345, TEMPERATURE = 726.85 /
&DEVC XB=0.8,0.9,0.0,0.1,0.2,0.3, QUANTITY='HRRPUV', SPATIAL_STATISTIC='VOLUME INTEGRAL', ID='HRR15' /
&DEVC XB=0.8,0.9,0.0,0.1,0.2,0.3, QUANTITY='TEMPERATURE', SPATIAL_STATISTIC='MEAN', ID='TEMP15' /
&DEVC XB=0.8,0.9,0.0,0.1,0.2,0.3, QUANTITY='MASS FRACTION', SPATIAL_STATISTIC='MEAN', SPEC_ID='OXYGEN', ID='O2_15' /
&DEVC XB=0.8,0.9,0.0,0.1,0.2,0.3, QUANTITY='MASS FRACTION', SPATIAL_STATISTIC='MEAN', SPEC_ID='METHANE', ID='METHANE_15' /

&MESH IJK=4,4,4, XB=1.0,1.1,0.0,0.1,0.2,0.3 /
&INIT XB=1.0,1.1,0.0,0.1,0.2,0.3, SPEC_ID(1)='METHANE', MASS_FRACTION(1) = 0.0086, SPEC_ID(2)='OXYGEN', MASS_FRACTION(2)= 0.0345, TEMPERATURE = 901.85 /
&DEVC XB=1.0,1.1,0.0,0.1,0.2,0.3, QUANTITY='HRRPUV', SPATIAL_STATISTIC='VOLUME INTEGRAL', ID='HRR16' /
&DEVC XB=1.0,1.1,0.0,0.1,0.2,0.3, QUANTITY='TEMPERATURE', SPATIAL_STATISTIC='MEAN', ID='TEMP16' /
&DEVC XB=1.0,1.1,0.0,0.1,0.2,0.3, QUANTITY='MASS FRACTION', SPATIAL_STATISTIC='MEAN', SPEC_ID='OXYGEN', ID='O2_16' /
&DEVC XB=1.0,1.1,0.0,0.1,0.2,0.3, QUANTITY='MASS FRACTION', SPATIAL_STATISTIC='MEAN', SPEC_ID='METHANE', ID='METHANE_16' /

&MESH IJK=4,4,4, XB=1.2,1.3,0.0,0.1,0.2,0.3 /
&INIT XB=1.2,1.3,0.0,0.1,0.2,0.3, SPEC_ID(1)='METHANE', MASS_FRACTION(1) = 0.0086, SPEC_ID(2)='OXYGEN', MASS_FRACTION(2)= 0.0345, TEMPERATURE = 1076.85 /
&DEVC XB=1.2,1.3,0.0,0.1,0.2,0.3, QUANTITY='HRRPUV', SPATIAL_STATISTIC='VOLUME INTEGRAL', ID='HRR17' /
&DEVC XB=1.2,1.3,0.0,0.1,0.2,0.3, QUANTITY='TEMPERATURE', SPATIAL_STATISTIC='MEAN', ID='TEMP17' /
&DEVC XB=1.2,1.3,0.0,0.1,0.2,0.3, QUANTITY='MASS FRACTION', SPATIAL_STATISTIC='MEAN', SPEC_ID='OXYGEN', ID='O2_17' /
&DEVC XB=1.2,1.3,0.0,0.1,0.2,0.3, QUANTITY='MASS FRACTION', SPATIAL_STATISTIC='MEAN', SPEC_ID='METHANE', ID='METHANE_17' /

&MESH IJK=4,4,4, XB=1.4,1.5,0.0,0.1,0.2,0.3 /
&INIT XB=1.4,1.5,0.0,0.1,0.2,0.3, SPEC_ID(1)='METHANE', MASS_FRACTION(1) = 0.0086, SPEC_ID(2)='OXYGEN', MASS_FRACTION(2)= 0.0345, TEMPERATURE = 1251.85 /
&DEVC XB=1.4,1.5,0.0,0.1,0.2,0.3, QUANTITY='HRRPUV', SPATIAL_STATISTIC='VOLUME INTEGRAL', ID='HRR18' /
&DEVC XB=1.4,1.5,0.0,0.1,0.2,0.3, QUANTITY='TEMPERATURE', SPATIAL_STATISTIC='MEAN', ID='TEMP18' /
&DEVC XB=1.4,1.5,0.0,0.1,0.2,0.3, QUANTITY='MASS FRACTION', SPATIAL_STATISTIC='MEAN', SPEC_ID='OXYGEN', ID='O2_18' /
&DEVC XB=1.4,1.5,0.0,0.1,0.2,0.3, QUANTITY='MASS FRACTION', SPATIAL_STATISTIC='MEAN', SPEC_ID='METHANE', ID='METHANE_18' /

&MESH IJK=4,4,4, XB=1.6,1.7,0.0,0.1,0.2,0.3 /
&INIT XB=1.6,1.7,0.0,0.1,0.2,0.3, SPEC_ID(1)='METHANE', MASS_FRACTION(1) = 0.0086, SPEC_ID(2)='OXYGEN', MASS_FRACTION(2)= 0.0345, TEMPERATURE = 1426.85 /
&DEVC XB=1.6,1.7,0.0,0.1,0.2,0.3, QUANTITY='HRRPUV', SPATIAL_STATISTIC='VOLUME INTEGRAL', ID='HRR19' /
&DEVC XB=1.6,1.7,0.0,0.1,0.2,0.3, QUANTITY='TEMPERATURE', SPATIAL_STATISTIC='MEAN', ID='TEMP19' /
&DEVC XB=1.6,1.7,0.0,0.1,0.2,0.3, QUANTITY='MASS FRACTION', SPATIAL_STATISTIC='MEAN', SPEC_ID='OXYGEN', ID='O2_19' /
&DEVC XB=1.6,1.7,0.0,0.1,0.2,0.3, QUANTITY='MASS FRACTION', SPATIAL_STATISTIC='MEAN', SPEC_ID='METHANE', ID='METHANE_19' /

&MESH IJK=4,4,4, XB=1.8,1.9,0.0,0.1,0.2,0.3 /
&INIT XB=1.8,1.9,0.0,0.1,0.2,0.3, SPEC_ID(1)='METHANE', MASS_FRACTION(1) = 0.0086, SPEC_ID(2)='OXYGEN', MASS_FRACTION(2)= 0.0345, TEMPERATURE = 1601.85 /
&DEVC XB=1.8,1.9,0.0,0.1,0.2,0.3, QUANTITY='HRRPUV', SPATIAL_STATISTIC='VOLUME INTEGRAL', ID='HRR20' /
&DEVC XB=1.8,1.9,0.0,0.1,0.2,0.3, QUANTITY='TEMPERATURE', SPATIAL_STATISTIC='MEAN', ID='TEMP20' /
&DEVC XB=1.8,1.9,0.0,0.1,0.2,0.3, QUANTITY='MASS FRACTION', SPATIAL_STATISTIC='MEAN', SPEC_ID='OXYGEN', ID='O2_20' /
&DEVC XB=1.8,1.9,0.0,0.1,0.2,0.3, QUANTITY='MASS FRACTION', SPATIAL_STATISTIC='MEAN', SPEC_ID='METHANE', ID='METHANE_20' /

&MESH IJK=4,4,4, XB=0.0,0.1,0.0,0.1,0.4,0.5 /
&INIT XB=0.0,0.1,0.0,0.1,0.4,0.5, SPEC_ID(1)='METHANE', MASS_FRACTION(1) = 0.0144, SPEC_ID(2)='OXYGEN', MASS_FRACTION(2)= 0.0575, TEMPERATURE = 26.85 /
&DEVC XB=0.0,0.1,0.0,0.1,0.4,0.5, QUANTITY='HRRPUV', SPATIAL_STATISTIC='VOLUME INTEGRAL', ID='HRR21' /
&DEVC XB=0.0,0.1,0.0,0.1,0.4,0.5, QUANTITY='TEMPERATURE', SPATIAL_STATISTIC='MEAN', ID='TEMP21' /
&DEVC XB=0.0,0.1,0.0,0.1,0.4,0.5, QUANTITY='MASS FRACTION', SPATIAL_STATISTIC='MEAN', SPEC_ID='OXYGEN', ID='O2_21' /
&DEVC XB=0.0,0.1,0.0,0.1,0.4,0.5, QUANTITY='MASS FRACTION', SPATIAL_STATISTIC='MEAN', SPEC_ID='METHANE', ID='METHANE_21' /

&MESH IJK=4,4,4, XB=0.2,0.3,0.0,0.1,0.4,0.5 /
&INIT XB=0.2,0.3,0.0,0.1,0.4,0.5, SPEC_ID(1)='METHANE', MASS_FRACTION(1) = 0.0144, SPEC_ID(2)='OXYGEN', MASS_FRACTION(2)= 0.0575, TEMPERATURE = 201.85 /
&DEVC XB=0.2,0.3,0.0,0.1,0.4,0.5, QUANTITY='HRRPUV', SPATIAL_STATISTIC='VOLUME INTEGRAL', ID='HRR22' /
&DEVC XB=0.2,0.3,0.0,0.1,0.4,0.5, QUANTITY='TEMPERATURE', SPATIAL_STATISTIC='MEAN', ID='TEMP22' /
&DEVC XB=0.2,0.3,0.0,0.1,0.4,0.5, QUANTITY='MASS FRACTION', SPATIAL_STATISTIC='MEAN', SPEC_ID='OXYGEN', ID='O2_22' /
&DEVC XB=0.2,0.3,0.0,0.1,0.4,0.5, QUANTITY='MASS FRACTION', SPATIAL_STATISTIC='MEAN', SPEC_ID='METHANE', ID='METHANE_22' /

&MESH IJK=4,4,4, XB=0.4,0.5,0.0,0.1,0.4,0.5 /
&INIT XB=0.4,0.5,0.0,0.1,0.4,0.5, SPEC_ID(1)='METHANE', MASS_FRACTION(1) = 0.0144, SPEC_ID(2)='OXYGEN', MASS_FRACTION(2)= 0.0575, TEMPERATURE = 376.85 /
&DEVC XB=0.4,0.5,0.0,0.1,0.4,0.5, QUANTITY='HRRPUV', SPATIAL_STATISTIC='VOLUME INTEGRAL', ID='HRR23' /
&DEVC XB=0.4,0.5,0.0,0.1,0.4,0.5, QUANTITY='TEMPERATURE', SPATIAL_STATISTIC='MEAN', ID='TEMP23' /
&DEVC XB=0.4,0.5,0.0,0.1,0.4,0.5, QUANTITY='MASS FRACTION', SPATIAL_STATISTIC='MEAN', SPEC_ID='OXYGEN', ID='O2_23' /
&DEVC XB=0.4,0.5,0.0,0.1,0.4,0.5, QUANTITY='MASS FRACTION', SPATIAL_STATISTIC='MEAN', SPEC_ID='METHANE', ID='METHANE_23' /

&MESH IJK=4,4,4, XB=0.6,0.7,0.0,0.1,0.4,0.5 /
&INIT XB=0.6,0.7,0.0,0.1,0.4,0.5, SPEC_ID(1)='METHANE', MASS_FRACTION(1) = 0.0144, SPEC_ID(2)='OXYGEN', MASS_FRACTION(2)= 0.0575, TEMPERATURE = 551.85 /
&DEVC XB=0.6,0.7,0.0,0.1,0.4,0.5, QUANTITY='HRRPUV', SPATIAL_STATISTIC='VOLUME INTEGRAL', ID='HRR24' /
&DEVC XB=0.6,0.7,0.0,0.1,0.4,0.5, QUANTITY='TEMPERATURE', SPATIAL_STATISTIC='MEAN', ID='TEMP24' /
&DEVC XB=0.6,0.7,0.0,0.1,0.4,0.5, QUANTITY='MASS FRACTION', SPATIAL_STATISTIC='MEAN', SPEC_ID='OXYGEN', ID='O2_24' /
&DEVC XB=0.6,0.7,0.0,0.1,0.4,0.5, QUANTITY='MASS FRACTION', SPATIAL_STATISTIC='MEAN', SPEC_ID='METHANE', ID='METHANE_24' /

&MESH IJK=4,4,4, XB=0.8,0.9,0.0,0.1,0.4,0.5 /
&INIT XB=0.8,0.9,0.0,0.1,0.4,0.5, SPEC_ID(1)='METHANE', MASS_FRACTION(1) = 0.0144, SPEC_ID(2)='OXYGEN', MASS_FRACTION(2)= 0.0575, TEMPERATURE = 726.85 /
&DEVC XB=0.8,0.9,0.0,0.1,0.4,0.5, QUANTITY='HRRPUV', SPATIAL_STATISTIC='VOLUME INTEGRAL', ID='HRR25' /
&DEVC XB=0.8,0.9,0.0,0.1,0.4,0.5, QUANTITY='TEMPERATURE', SPATIAL_STATISTIC='MEAN', ID='TEMP25' /
&DEVC XB=0.8,0.9,0.0,0.1,0.4,0.5, QUANTITY='MASS FRACTION', SPATIAL_STATISTIC='MEAN', SPEC_ID='OXYGEN', ID='O2_25' /
&DEVC XB=0.8,0.9,0.0,0.1,0.4,0.5, QUANTITY='MASS FRACTION', SPATIAL_STATISTIC='MEAN', SPEC_ID='METHANE', ID='METHANE_25' /

&MESH IJK=4,4,4, XB=1.0,1.1,0.0,0.1,0.4,0.5 /
&INIT XB=1.0,1.1,0.0,0.1,0.4,0.5, SPEC_ID(1)='METHANE', MASS_FRACTION(1) = 0.0144, SPEC_ID(2)='OXYGEN', MASS_FRACTION(2)= 0.0575, TEMPERATURE = 901.85 /
&DEVC XB=1.0,1.1,0.0,0.1,0.4,0.5, QUANTITY='HRRPUV', SPATIAL_STATISTIC='VOLUME INTEGRAL', ID='HRR26' /
&DEVC XB=1.0,1.1,0.0,0.1,0.4,0.5, QUANTITY='TEMPERATURE', SPATIAL_STATISTIC='MEAN', ID='TEMP26' /
&DEVC XB=1.0,1.1,0.0,0.1,0.4,0.5, QUANTITY='MASS FRACTION', SPATIAL_STATISTIC='MEAN', SPEC_ID='OXYGEN', ID='O2_26' /
&DEVC XB=1.0,1.1,0.0,0.1,0.4,0.5, QUANTITY='MASS FRACTION', SPATIAL_STATISTIC='MEAN', SPEC_ID='METHANE', ID='METHANE_26' /

&MESH IJK=4,4,4, XB=1.2,1.3,0.0,0.1,0.4,0.5 /
&INIT XB=1.2,1.3,0.0,0.1,0.4,0.5, SPEC_ID(1)='METHANE', MASS_FRACTION(1) = 0.0144, SPEC_ID(2)='OXYGEN', MASS_FRACTION(2)= 0.0575, TEMPERATURE = 1076.85 /
&DEVC XB=1.2,1.3,0.0,0.1,0.4,0.5, QUANTITY='HRRPUV', SPATIAL_STATISTIC='VOLUME INTEGRAL', ID='HRR27' /
&DEVC XB=1.2,1.3,0.0,0.1,0.4,0.5, QUANTITY='TEMPERATURE', SPATIAL_STATISTIC='MEAN', ID='TEMP27' /
&DEVC XB=1.2,1.3,0.0,0.1,0.4,0.5, QUANTITY='MASS FRACTION', SPATIAL_STATISTIC='MEAN', SPEC_ID='OXYGEN', ID='O2_27' /
&DEVC XB=1.2,1.3,0.0,0.1,0.4,0.5, QUANTITY='MASS FRACTION', SPATIAL_STATISTIC='MEAN', SPEC_ID='METHANE', ID='METHANE_27' /

&MESH IJK=4,4,4, XB=1.4,1.5,0.0,0.1,0.4,0.5 /
&INIT XB=1.4,1.5,0.0,0.1,0.4,0.5, SPEC_ID(1)='METHANE', MASS_FRACTION(1) = 0.0144, SPEC_ID(2)='OXYGEN', MASS_FRACTION(2)= 0.0575, TEMPERATURE = 1251.85 /
&DEVC XB=1.4,1.5,0.0,0.1,0.4,0.5, QUANTITY='HRRPUV', SPATIAL_STATISTIC='VOLUME INTEGRAL', ID='HRR28' /
&DEVC XB=1.4,1.5,0.0,0.1,0.4,0.5, QUANTITY='TEMPERATURE', SPATIAL_STATISTIC='MEAN', ID='TEMP28' /
&DEVC XB=1.4,1.5,0.0,0.1,0.4,0.5, QUANTITY='MASS FRACTION', SPATIAL_STATISTIC='MEAN', SPEC_ID='OXYGEN', ID='O2_28' /
&DEVC XB=1.4,1.5,0.0,0.1,0.4,0.5, QUANTITY='MASS FRACTION', SPATIAL_STATISTIC='MEAN', SPEC_ID='METHANE', ID='METHANE_28' /

&MESH IJK=4,4,4, XB=1.6,1.7,0.0,0.1,0.4,0.5 /
&INIT XB=1.6,1.7,0.0,0.1,0.4,0.5, SPEC_ID(1)='METHANE', MASS_FRACTION(1) = 0.0144, SPEC_ID(2)='OXYGEN', MASS_FRACTION(2)= 0.0575, TEMPERATURE = 1426.85 /
&DEVC XB=1.6,1.7,0.0,0.1,0.4,0.5, QUANTITY='HRRPUV', SPATIAL_STATISTIC='VOLUME INTEGRAL', ID='HRR29' /
&DEVC XB=1.6,1.7,0.0,0.1,0.4,0.5, QUANTITY='TEMPERATURE', SPATIAL_STATISTIC='MEAN', ID='TEMP29' /
&DEVC XB=1.6,1.7,0.0,0.1,0.4,0.5, QUANTITY='MASS FRACTION', SPATIAL_STATISTIC='MEAN', SPEC_ID='OXYGEN', ID='O2_29' /
&DEVC XB=1.6,1.7,0.0,0.1,0.4,0.5, QUANTITY='MASS FRACTION', SPATIAL_STATISTIC='MEAN', SPEC_ID='METHANE', ID='METHANE_29' /

&MESH IJK=4,4,4, XB=1.8,1.9,0.0,0.1,0.4,0.5 /
&INIT XB=1.8,1.9,0.0,0.1,0.4,0.5, SPEC_ID(1)='METHANE', MASS_FRACTION(1) = 0.0144, SPEC_ID(2)='OXYGEN', MASS_FRACTION(2)= 0.0575, TEMPERATURE = 1601.85 /
&DEVC XB=1.8,1.9,0.0,0.1,0.4,0.5, QUANTITY='HRRPUV', SPATIAL_STATISTIC='VOLUME INTEGRAL', ID='HRR30' /
&DEVC XB=1.8,1.9,0.0,0.1,0.4,0.5, QUANTITY='TEMPERATURE', SPATIAL_STATISTIC='MEAN', ID='TEMP30' /
&DEVC XB=1.8,1.9,0.0,0.1,0.4,0.5, QUANTITY='MASS FRACTION', SPATIAL_STATISTIC='MEAN', SPEC_ID='OXYGEN', ID='O2_30' /
&DEVC XB=1.8,1.9,0.0,0.1,0.4,0.5, QUANTITY='MASS FRACTION', SPATIAL_STATISTIC='MEAN', SPEC_ID='METHANE', ID='METHANE_30' /

&MESH IJK=4,4,4, XB=0.0,0.1,0.0,0.1,0.6,0.7 /
&INIT XB=0.0,0.1,0.0,0.1,0.6,0.7, SPEC_ID(1)='METHANE', MASS_FRACTION(1) = 0.0201, SPEC_ID(2)='OXYGEN', MASS_FRACTION(2)= 0.0805, TEMPERATURE = 26.85 /
&DEVC XB=0.0,0.1,0.0,0.1,0.6,0.7, QUANTITY='HRRPUV', SPATIAL_STATISTIC='VOLUME INTEGRAL', ID='HRR31' /
&DEVC XB=0.0,0.1,0.0,0.1,0.6,0.7, QUANTITY='TEMPERATURE', SPATIAL_STATISTIC='MEAN', ID='TEMP31' /
&DEVC XB=0.0,0.1,0.0,0.1,0.6,0.7, QUANTITY='MASS FRACTION', SPATIAL_STATISTIC='MEAN', SPEC_ID='OXYGEN', ID='O2_31' /
&DEVC XB=0.0,0.1,0.0,0.1,0.6,0.7, QUANTITY='MASS FRACTION', SPATIAL_STATISTIC='MEAN', SPEC_ID='METHANE', ID='METHANE_31' /

&MESH IJK=4,4,4, XB=0.2,0.3,0.0,0.1,0.6,0.7 /
&INIT XB=0.2,0.3,0.0,0.1,0.6,0.7, SPEC_ID(1)='METHANE', MASS_FRACTION(1) = 0.0201, SPEC_ID(2)='OXYGEN', MASS_FRACTION(2)= 0.0805, TEMPERATURE = 201.85 /
&DEVC XB=0.2,0.3,0.0,0.1,0.6,0.7, QUANTITY='HRRPUV', SPATIAL_STATISTIC='VOLUME INTEGRAL', ID='HRR32' /
&DEVC XB=0.2,0.3,0.0,0.1,0.6,0.7, QUANTITY='TEMPERATURE', SPATIAL_STATISTIC='MEAN', ID='TEMP32' /
&DEVC XB=0.2,0.3,0.0,0.1,0.6,0.7, QUANTITY='MASS FRACTION', SPATIAL_STATISTIC='MEAN', SPEC_ID='OXYGEN', ID='O2_32' /
&DEVC XB=0.2,0.3,0.0,0.1,0.6,0.7, QUANTITY='MASS FRACTION', SPATIAL_STATISTIC='MEAN', SPEC_ID='METHANE', ID='METHANE_32' /

&MESH IJK=4,4,4, XB=0.4,0.5,0.0,0.1,0.6,0.7 /
&INIT XB=0.4,0.5,0.0,0.1,0.6,0.7, SPEC_ID(1)='METHANE', MASS_FRACTION(1) = 0.0201, SPEC_ID(2)='OXYGEN', MASS_FRACTION(2)= 0.0805, TEMPERATURE = 376.85 /
&DEVC XB=0.4,0.5,0.0,0.1,0.6,0.7, QUANTITY='HRRPUV', SPATIAL_STATISTIC='VOLUME INTEGRAL', ID='HRR33' /
&DEVC XB=0.4,0.5,0.0,0.1,0.6,0.7, QUANTITY='TEMPERATURE', SPATIAL_STATISTIC='MEAN', ID='TEMP33' /
&DEVC XB=0.4,0.5,0.0,0.1,0.6,0.7, QUANTITY='MASS FRACTION', SPATIAL_STATISTIC='MEAN', SPEC_ID='OXYGEN', ID='O2_33' /
&DEVC XB=0.4,0.5,0.0,0.1,0.6,0.7, QUANTITY='MASS FRACTION', SPATIAL_STATISTIC='MEAN', SPEC_ID='METHANE', ID='METHANE_33' /

&MESH IJK=4,4,4, XB=0.6,0.7,0.0,0.1,0.6,0.7 /
&INIT XB=0.6,0.7,0.0,0.1,0.6,0.7, SPEC_ID(1)='METHANE', MASS_FRACTION(1) = 0.0201, SPEC_ID(2)='OXYGEN', MASS_FRACTION(2)= 0.0805, TEMPERATURE = 551.85 /
&DEVC XB=0.6,0.7,0.0,0.1,0.6,0.7, QUANTITY='HRRPUV', SPATIAL_STATISTIC='VOLUME INTEGRAL', ID='HRR34' /
&DEVC XB=0.6,0.7,0.0,0.1,0.6,0.7, QUANTITY='TEMPERATURE', SPATIAL_STATISTIC='MEAN', ID='TEMP34' /
&DEVC XB=0.6,0.7,0.0,0.1,0.6,0.7, QUANTITY='MASS FRACTION', SPATIAL_STATISTIC='MEAN', SPEC_ID='OXYGEN', ID='O2_34' /
&DEVC XB=0.6,0.7,0.0,0.1,0.6,0.7, QUANTITY='MASS FRACTION', SPATIAL_STATISTIC='MEAN', SPEC_ID='METHANE', ID='METHANE_34' /

&MESH IJK=4,4,4, XB=0.8,0.9,0.0,0.1,0.6,0.7 /
&INIT XB=0.8,0.9,0.0,0.1,0.6,0.7, SPEC_ID(1)='METHANE', MASS_FRACTION(1) = 0.0201, SPEC_ID(2)='OXYGEN', MASS_FRACTION(2)= 0.0805, TEMPERATURE = 726.85 /
&DEVC XB=0.8,0.9,0.0,0.1,0.6,0.7, QUANTITY='HRRPUV', SPATIAL_STATISTIC='VOLUME INTEGRAL', ID='HRR35' /
&DEVC XB=0.8,0.9,0.0,0.1,0.6,0.7, QUANTITY='TEMPERATURE', SPATIAL_STATISTIC='MEAN', ID='TEMP35' /
&DEVC XB=0.8,0.9,0.0,0.1,0.6,0.7, QUANTITY='MASS FRACTION', SPATIAL_STATISTIC='MEAN', SPEC_ID='OXYGEN', ID='O2_35' /
&DEVC XB=0.8,0.9,0.0,0.1,0.6,0.7, QUANTITY='MASS FRACTION', SPATIAL_STATISTIC='MEAN', SPEC_ID='METHANE', ID='METHANE_35' /

&MESH IJK=4,4,4, XB=1.0,1.1,0.0,0.1,0.6,0.7 /
&INIT XB=1.0,1.1,0.0,0.1,0.6,0.7, SPEC_ID(1)='METHANE', MASS_FRACTION(1) = 0.0201, SPEC_ID(2)='OXYGEN', MASS_FRACTION(2)= 0.0805, TEMPERATURE = 901.85 /
&DEVC XB=1.0,1.1,0.0,0.1,0.6,0.7, QUANTITY='HRRPUV', SPATIAL_STATISTIC='VOLUME INTEGRAL', ID='HRR36' /
&DEVC XB=1.0,1.1,0.0,0.1,0.6,0.7, QUANTITY='TEMPERATURE', SPATIAL_STATISTIC='MEAN', ID='TEMP36' /
&DEVC XB=1.0,1.1,0.0,0.1,0.6,0.7, QUANTITY='MASS FRACTION', SPATIAL_STATISTIC='MEAN', SPEC_ID='OXYGEN', ID='O2_36' /
&DEVC XB=1.0,1.1,0.0,0.1,0.6,0.7, QUANTITY='MASS FRACTION', SPATIAL_STATISTIC='MEAN', SPEC_ID='METHANE', ID='METHANE_36' /

&MESH IJK=4,4,4, XB=1.2,1.3,0.0,0.1,0.6,0.7 /
&INIT XB=1.2,1.3,0.0,0.1,0.6,0.7, SPEC_ID(1)='METHANE', MASS_FRACTION(1) = 0.0201, SPEC_ID(2)='OXYGEN', MASS_FRACTION(2)= 0.0805, TEMPERATURE = 1076.85 /
&DEVC XB=1.2,1.3,0.0,0.1,0.6,0.7, QUANTITY='HRRPUV', SPATIAL_STATISTIC='VOLUME INTEGRAL', ID='HRR37' /
&DEVC XB=1.2,1.3,0.0,0.1,0.6,0.7, QUANTITY='TEMPERATURE', SPATIAL_STATISTIC='MEAN', ID='TEMP37' /
&DEVC XB=1.2,1.3,0.0,0.1,0.6,0.7, QUANTITY='MASS FRACTION', SPATIAL_STATISTIC='MEAN', SPEC_ID='OXYGEN', ID='O2_37' /
&DEVC XB=1.2,1.3,0.0,0.1,0.6,0.7, QUANTITY='MASS FRACTION', SPATIAL_STATISTIC='MEAN', SPEC_ID='METHANE', ID='METHANE_37' /

&MESH IJK=4,4,4, XB=1.4,1.5,0.0,0.1,0.6,0.7 /
&INIT XB=1.4,1.5,0.0,0.1,0.6,0.7, SPEC_ID(1)='METHANE', MASS_FRACTION(1) = 0.0201, SPEC_ID(2)='OXYGEN', MASS_FRACTION(2)= 0.0805, TEMPERATURE = 1251.85 /
&DEVC XB=1.4,1.5,0.0,0.1,0.6,0.7, QUANTITY='HRRPUV', SPATIAL_STATISTIC='VOLUME INTEGRAL', ID='HRR38' /
&DEVC XB=1.4,1.5,0.0,0.1,0.6,0.7, QUANTITY='TEMPERATURE', SPATIAL_STATISTIC='MEAN', ID='TEMP38' /
&DEVC XB=1.4,1.5,0.0,0.1,0.6,0.7, QUANTITY='MASS FRACTION', SPATIAL_STATISTIC='MEAN', SPEC_ID='OXYGEN', ID='O2_38' /
&DEVC XB=1.4,1.5,0.0,0.1,0.6,0.7, QUANTITY='MASS FRACTION', SPATIAL_STATISTIC='MEAN', SPEC_ID='METHANE', ID='METHANE_38' /

&MESH IJK=4,4,4, XB=1.6,1.7,0.0,0.1,0.6,0.7 /
&INIT XB=1.6,1.7,0.0,0.1,0.6,0.7, SPEC_ID(1)='METHANE', MASS_FRACTION(1) = 0.0201, SPEC_ID(2)='OXYGEN', MASS_FRACTION(2)= 0.0805, TEMPERATURE = 1426.85 /
&DEVC XB=1.6,1.7,0.0,0.1,0.6,0.7, QUANTITY='HRRPUV', SPATIAL_STATISTIC='VOLUME INTEGRAL', ID='HRR39' /
&DEVC XB=1.6,1.7,0.0,0.1,0.6,0.7, QUANTITY='TEMPERATURE', SPATIAL_STATISTIC='MEAN', ID='TEMP39' /
&DEVC XB=1.6,1.7,0.0,0.1,0.6,0.7, QUANTITY='MASS FRACTION', SPATIAL_STATISTIC='MEAN', SPEC_ID='OXYGEN', ID='O2_39' /
&DEVC XB=1.6,1.7,0.0,0.1,0.6,0.7, QUANTITY='MASS FRACTION', SPATIAL_STATISTIC='MEAN', SPEC_ID='METHANE', ID='METHANE_39' /

&MESH IJK=4,4,4, XB=1.8,1.9,0.0,0.1,0.6,0.7 /
&INIT XB=1.8,1.9,0.0,0.1,0.6,0.7, SPEC_ID(1)='METHANE', MASS_FRACTION(1) = 0.0201, SPEC_ID(2)='OXYGEN', MASS_FRACTION(2)= 0.0805, TEMPERATURE = 1601.85 /
&DEVC XB=1.8,1.9,0.0,0.1,0.6,0.7, QUANTITY='HRRPUV', SPATIAL_STATISTIC='VOLUME INTEGRAL', ID='HRR40' /
&DEVC XB=1.8,1.9,0.0,0.1,0.6,0.7, QUANTITY='TEMPERATURE', SPATIAL_STATISTIC='MEAN', ID='TEMP40' /
&DEVC XB=1.8,1.9,0.0,0.1,0.6,0.7, QUANTITY='MASS FRACTION', SPATIAL_STATISTIC='MEAN', SPEC_ID='OXYGEN', ID='O2_40' /
&DEVC XB=1.8,1.9,0.0,0.1,0.6,0.7, QUANTITY='MASS FRACTION', SPATIAL_STATISTIC='MEAN', SPEC_ID='METHANE', ID='METHANE_40' /

&MESH IJK=4,4,4, XB=0.0,0.1,0.0,0.1,0.8,0.9 /
&INIT XB=0.0,0.1,0.0,0.1,0.8,0.9, SPEC_ID(1)='METHANE', MASS_FRACTION(1) = 0.0259, SPEC_ID(2)='OXYGEN', MASS_FRACTION(2)= 0.1035, TEMPERATURE = 26.85 /
&DEVC XB=0.0,0.1,0.0,0.1,0.8,0.9, QUANTITY='HRRPUV', SPATIAL_STATISTIC='VOLUME INTEGRAL', ID='HRR41' /
&DEVC XB=0.0,0.1,0.0,0.1,0.8,0.9, QUANTITY='TEMPERATURE', SPATIAL_STATISTIC='MEAN', ID='TEMP41' /
&DEVC XB=0.0,0.1,0.0,0.1,0.8,0.9, QUANTITY='MASS FRACTION', SPATIAL_STATISTIC='MEAN', SPEC_ID='OXYGEN', ID='O2_41' /
&DEVC XB=0.0,0.1,0.0,0.1,0.8,0.9, QUANTITY='MASS FRACTION', SPATIAL_STATISTIC='MEAN', SPEC_ID='METHANE', ID='METHANE_41' /

&MESH IJK=4,4,4, XB=0.2,0.3,0.0,0.1,0.8,0.9 /
&INIT XB=0.2,0.3,0.0,0.1,0.8,0.9, SPEC_ID(1)='METHANE', MASS_FRACTION(1) = 0.0259, SPEC_ID(2)='OXYGEN', MASS_FRACTION(2)= 0.1035, TEMPERATURE = 201.85 /
&DEVC XB=0.2,0.3,0.0,0.1,0.8,0.9, QUANTITY='HRRPUV', SPATIAL_STATISTIC='VOLUME INTEGRAL', ID='HRR42' /
&DEVC XB=0.2,0.3,0.0,0.1,0.8,0.9, QUANTITY='TEMPERATURE', SPATIAL_STATISTIC='MEAN', ID='TEMP42' /
&DEVC XB=0.2,0.3,0.0,0.1,0.8,0.9, QUANTITY='MASS FRACTION', SPATIAL_STATISTIC='MEAN', SPEC_ID='OXYGEN', ID='O2_42' /
&DEVC XB=0.2,0.3,0.0,0.1,0.8,0.9, QUANTITY='MASS FRACTION', SPATIAL_STATISTIC='MEAN', SPEC_ID='METHANE', ID='METHANE_42' /

&MESH IJK=4,4,4, XB=0.4,0.5,0.0,0.1,0.8,0.9 /
&INIT XB=0.4,0.5,0.0,0.1,0.8,0.9, SPEC_ID(1)='METHANE', MASS_FRACTION(1) = 0.0259, SPEC_ID(2)='OXYGEN', MASS_FRACTION(2)= 0.1035, TEMPERATURE = 376.85 /
&DEVC XB=0.4,0.5,0.0,0.1,0.8,0.9, QUANTITY='HRRPUV', SPATIAL_STATISTIC='VOLUME INTEGRAL', ID='HRR43' /
&DEVC XB=0.4,0.5,0.0,0.1,0.8,0.9, QUANTITY='TEMPERATURE', SPATIAL_STATISTIC='MEAN', ID='TEMP43' /
&DEVC XB=0.4,0.5,0.0,0.1,0.8,0.9, QUANTITY='MASS FRACTION', SPATIAL_STATISTIC='MEAN', SPEC_ID='OXYGEN', ID='O2_43' /
&DEVC XB=0.4,0.5,0.0,0.1,0.8,0.9, QUANTITY='MASS FRACTION', SPATIAL_STATISTIC='MEAN', SPEC_ID='METHANE', ID='METHANE_43' /

&MESH IJK=4,4,4, XB=0.6,0.7,0.0,0.1,0.8,0.9 /
&INIT XB=0.6,0.7,0.0,0.1,0.8,0.9, SPEC_ID(1)='METHANE', MASS_FRACTION(1) = 0.0259, SPEC_ID(2)='OXYGEN', MASS_FRACTION(2)= 0.1035, TEMPERATURE = 551.85 /
&DEVC XB=0.6,0.7,0.0,0.1,0.8,0.9, QUANTITY='HRRPUV', SPATIAL_STATISTIC='VOLUME INTEGRAL', ID='HRR44' /
&DEVC XB=0.6,0.7,0.0,0.1,0.8,0.9, QUANTITY='TEMPERATURE', SPATIAL_STATISTIC='MEAN', ID='TEMP44' /
&DEVC XB=0.6,0.7,0.0,0.1,0.8,0.9, QUANTITY='MASS FRACTION', SPATIAL_STATISTIC='MEAN', SPEC_ID='OXYGEN', ID='O2_44' /
&DEVC XB=0.6,0.7,0.0,0.1,0.8,0.9, QUANTITY='MASS FRACTION', SPATIAL_STATISTIC='MEAN', SPEC_ID='METHANE', ID='METHANE_44' /

&MESH IJK=4,4,4, XB=0.8,0.9,0.0,0.1,0.8,0.9 /
&INIT XB=0.8,0.9,0.0,0.1,0.8,0.9, SPEC_ID(1)='METHANE', MASS_FRACTION(1) = 0.0259, SPEC_ID(2)='OXYGEN', MASS_FRACTION(2)= 0.1035, TEMPERATURE = 726.85 /
&DEVC XB=0.8,0.9,0.0,0.1,0.8,0.9, QUANTITY='HRRPUV', SPATIAL_STATISTIC='VOLUME INTEGRAL', ID='HRR45' /
&DEVC XB=0.8,0.9,0.0,0.1,0.8,0.9, QUANTITY='TEMPERATURE', SPATIAL_STATISTIC='MEAN', ID='TEMP45' /
&DEVC XB=0.8,0.9,0.0,0.1,0.8,0.9, QUANTITY='MASS FRACTION', SPATIAL_STATISTIC='MEAN', SPEC_ID='OXYGEN', ID='O2_45' /
&DEVC XB=0.8,0.9,0.0,0.1,0.8,0.9, QUANTITY='MASS FRACTION', SPATIAL_STATISTIC='MEAN', SPEC_ID='METHANE', ID='METHANE_45' /

&MESH IJK=4,4,4, XB=1.0,1.1,0.0,0.1,0.8,0.9 /
&INIT XB=1.0,1.1,0.0,0.1,0.8,0.9, SPEC_ID(1)='METHANE', MASS_FRACTION(1) = 0.0259, SPEC_ID(2)='OXYGEN', MASS_FRACTION(2)= 0.1035, TEMPERATURE = 901.85 /
&DEVC XB=1.0,1.1,0.0,0.1,0.8,0.9, QUANTITY='HRRPUV', SPATIAL_STATISTIC='VOLUME INTEGRAL', ID='HRR46' /
&DEVC XB=1.0,1.1,0.0,0.1,0.8,0.9, QUANTITY='TEMPERATURE', SPATIAL_STATISTIC='MEAN', ID='TEMP46' /
&DEVC XB=1.0,1.1,0.0,0.1,0.8,0.9, QUANTITY='MASS FRACTION', SPATIAL_STATISTIC='MEAN', SPEC_ID='OXYGEN', ID='O2_46' /