&HEAD CHID='cyl_test_3' /         
&TIME T_END=3 /             
&MESH IJK=50,1,100, XB=0,0.05,-0.001,0.001,0.0,0.1, CYLINDRICAL=.TRUE. /
&MISC SIMULATION_MODE='DNS' /
&REAC FUEL='METHANE' /
&SURF ID='FUEL', MLRPUA=0.1 /
&OBST XB=0.005,0.006,-0.001,0.001,0.0,0.01 /         
&VENT XB=0.000,0.005,-0.001,0.001,0.0,0.0, SURF_ID='FUEL' /             
&VENT MB='XMAX', SURF_ID='OPEN' /  
&VENT MB='ZMAX', SURF_ID='OPEN' /     
&SLCF PBY=0., QUANTITY='TEMPERATURE', VECTOR=.TRUE. / 
&SLCF PBY=0., QUANTITY='HRRPUV' / 
&DEVC ID='temp1', XYZ=0.001,0,0.05, QUANTITY='TEMPERATURE' /
&TAIL /
