&HEAD CHID = 'divergence_test_2' TITLE = 'Test if the integral of divergence remains 0 in a sealed compartment' /

&MESH IJK=9,1,9, XB=0.0,1.0,-0.05,0.05,0.0,1.0 /

&TIME T_END=10. /

&MISC STRATIFICATION=.FALSE., NOISE=.FALSE. /

&PART ID='ball', SURF_ID='blower', STATIC=.TRUE., PROP_ID='ball object' /
&SURF ID='blower', MASS_FLUX(1)=10.0, SPEC_ID(1)='AIR', TAU_MF(1)=0.0, RADIUS=0.005, GEOMETRY='SPHERICAL' /
&INIT PART_ID='ball', XYZ=0.5,0.0,0.5, N_PARTICLES=1 /
&PROP ID='ball object', SMOKEVIEW_ID='SPHERE', SMOKEVIEW_PARAMETERS(1)='D=0.01' /

&SURF ID='WALL', ADIABATIC=.TRUE., DEFAULT=.TRUE. /

&SLCF PBY=0., QUANTITY = 'TEMPERATURE', CELL_CENTERED = .TRUE., VECTOR=.TRUE. /
&SLCF PBY=0., QUANTITY = 'DIVERGENCE',  CELL_CENTERED = .TRUE. /
&SLCF PBY=0., QUANTITY = 'DENSITY',     CELL_CENTERED = .TRUE. /
&SLCF PBY=0., QUANTITY = 'PRESSURE',    CELL_CENTERED = .TRUE. /

&DEVC ID='Vdot', XB=0,1,-.05,0.05,0,1, QUANTITY='DIVERGENCE', SPATIAL_STATISTIC='VOLUME MEAN' /

&TAIL /

