&HEAD CHID='mass_heat_wall_device_test', TITLE='Test of ADVECTIVE MASS and HEAT FLUX DEVC quantities'/

&MESH ID='MESH', IJK=80,80,40, XB=00.00,12.00,00.00,12.00,10.00,16.00/

&TIME T_END=60.0/

&DUMP &DUMP FLUSH_FILE_BUFFERS=F, MASS_FILE=.TRUE./

&SPEC ID='LJ AIR', SPECIFIC_HEAT=1., BACKGROUND=.TRUE./

&MISC TMPA=100/

&PRES VELOCITY_TOLERANCE=0.001, MAX_PRESSURE_ITERATIONS=100/

&RADI RADIATION=.FALSE./

&SURF ID='ADIABATIC', COLOR='GRAY 80', ADIABATIC=.TRUE., DEFAULT=.TRUE./
&SURF ID='Exhaust', MASS_FLUX_TOTAL=1.0/

&DEVC ID='MF vent', QUANTITY='MASS FLUX WALL', XB= 0.00, 0.00, 8.00,10.00,13.00,15.00, SPATIAL_STATISTIC='SURFACE INTEGRAL' /
&DEVC ID='MF open', QUANTITY='MASS FLUX WALL', XB= 6.00,10.00, 2.00, 6.00,10.00,10.00, SPATIAL_STATISTIC='SURFACE INTEGRAL' /

&DEVC ID='HF vent', QUANTITY='ENTHALPY FLUX WALL', XB= 0.00, 0.00, 8.00,10.00,13.00,15.00, SPATIAL_STATISTIC='SURFACE INTEGRAL' /
&DEVC ID='HF open', QUANTITY='ENTHALPY FLUX WALL', XB= 6.00,10.00, 2.00, 6.00,10.00,10.00, SPATIAL_STATISTIC='SURFACE INTEGRAL' /

&VENT SURF_ID='Exhaust', XB=00.00,00.00,08.00,10.00,13.00,15.00, COLOR='BLACK'/ 
&VENT SURF_ID='OPEN', XB=06.00,10.00,02.00,06.00,10.00,10.00/ 

&SLCF QUANTITY='TEMPERATURE', VECTOR=.TRUE., PBY=4/
&SLCF QUANTITY='VELOCITY', VECTOR=.TRUE., PBY=4/
&SLCF QUANTITY='PRESSURE', VECTOR=.TRUE., PBY=4/
&SLCF QUANTITY='H', VECTOR=.TRUE., PBY=4/
&SLCF QUANTITY='TEMPERATURE', VECTOR=.TRUE., PBY=9/
&SLCF QUANTITY='VELOCITY', VECTOR=.TRUE., PBY=9/
&SLCF QUANTITY='PRESSURE', VECTOR=.TRUE., PBY=9/
&SLCF QUANTITY='H', VECTOR=.TRUE., PBY=9/

&TAIL /
