&HEAD CHID='symmetry_test', TITLE='Test symmetry of flow solver' /

&MESH IJK=10,10,10, XB=0.0,1.0,0.0,1.0,0.0,1.0 /

&TIME T_END=50. /

&MISC STRATIFICATION=.FALSE., NOISE=.FALSE., GVEC=0.,0.,0. /
&RADI RADIATION=.FALSE./
&SURF ID='BLOW', VEL=-0.05, COLOR='RED', HEAT_TRANSFER_COEFFICIENT=0. /
&SURF ID='WALL', HEAT_TRANSFER_COEFFICIENT=0., DEFAULT=.TRUE. /

&OBST XB=0.4,0.6,0.4,0.6,0.4,0.6, COLOR='BLUE' /
&OBST XB=0.3,0.4,0.3,0.4,0.3,0.4, COLOR='BLUE' /
&OBST XB=0.6,0.7,0.3,0.4,0.3,0.4, COLOR='BLUE' /
&OBST XB=0.6,0.7,0.6,0.7,0.3,0.4, COLOR='BLUE' /
&OBST XB=0.3,0.4,0.6,0.7,0.3,0.4, COLOR='BLUE' /
&OBST XB=0.3,0.4,0.3,0.4,0.6,0.7, COLOR='BLUE' /
&OBST XB=0.6,0.7,0.3,0.4,0.6,0.7, COLOR='BLUE' /
&OBST XB=0.6,0.7,0.6,0.7,0.6,0.7, COLOR='BLUE' /
&OBST XB=0.3,0.4,0.6,0.7,0.6,0.7, COLOR='BLUE' /

&VENT XB=0.0,0.0,0.4,0.6,0.4,0.6, SURF_ID='BLOW' /
&VENT XB=1.0,1.0,0.4,0.6,0.4,0.6, SURF_ID='BLOW' /
&VENT XB=0.4,0.6,0.0,0.0,0.4,0.6, SURF_ID='BLOW' /
&VENT XB=0.4,0.6,1.0,1.0,0.4,0.6, SURF_ID='BLOW' /
&VENT XB=0.4,0.6,0.4,0.6,0.0,0.0, SURF_ID='BLOW' /
&VENT XB=0.4,0.6,0.4,0.6,1.0,1.0, SURF_ID='BLOW' /

&SLCF PBX=0.5,QUANTITY='VELOCITY',VECTOR=.TRUE. /
&SLCF PBY=0.5,QUANTITY='VELOCITY',VECTOR=.TRUE. /
&SLCF PBZ=0.5,QUANTITY='VELOCITY',VECTOR=.TRUE. /

&DEVC ID='u_1', XYZ=0.25,0.25,0.25, QUANTITY='U-VELOCITY' /
&DEVC ID='u_2', XYZ=0.65,0.75,0.75, QUANTITY='U-VELOCITY' /

&DEVC ID='v_1', XYZ=0.25,0.25,0.25, QUANTITY='V-VELOCITY' /
&DEVC ID='v_2', XYZ=0.75,0.65,0.75, QUANTITY='V-VELOCITY' /

&DEVC ID='w_1', XYZ=0.25,0.25,0.25, QUANTITY='W-VELOCITY' /
&DEVC ID='w_2', XYZ=0.75,0.75,0.65, QUANTITY='W-VELOCITY' /

&TAIL /
