&HEAD CHID='cone_1mesh', TITLE='Complex Geometry: Test grid pierced by cone, 1 mesh.' /

# 1 MESH:
&MESH IJK=5,5,12, XB=-1.5,1.5,-1.5,1.5,-2.0,6.0 /

&TIME T_END=1. /

# Vents:
&VENT MB='YMIN', SURF_ID='OPEN' /
&VENT MB='YMAX', SURF_ID='OPEN' /
&VENT MB='XMIN', SURF_ID='OPEN' /
&VENT MB='XMAX', SURF_ID='OPEN' /
&VENT MB='ZMAX', SURF_ID='OPEN' /

# Export Parameters:
&SLCF PBY=0, QUANTITY='VELOCITY',      VECTOR=.TRUE.        /
&SLCF PBY=0, QUANTITY='TEMPERATURE'  /
&SLCF PBY=0,   SLICETYPE='CUT_CELLS'    /
&BNDF QUANTITY='WALL TEMPERATURE' /
&DUMP FLUSH_FILE_BUFFERS=F, GET_CUTCELLS_VERBOSE=T/

# Geometries:
&SURF ID='CONE', COLOR='GREEN', TMP_FRONT=35. /
&GEOM ID='CONE', SURF_ID='CONE',
VERTS=
     0.0699,      -0.0146,       3.4286,
     0.0714,       0.0000,       3.4286,
     0.0000,       0.0000,       4.0000,
     0.1398,      -0.0292,       2.8571,
     0.1429,       0.0000,       2.8571,
     0.2098,      -0.0438,       2.2857,
     0.2143,       0.0000,       2.2857,
     0.2797,      -0.0584,       1.7143,
     0.2857,       0.0000,       1.7143,
     0.3496,      -0.0730,       1.1429,
     0.3571,       0.0000,       1.1429,
     0.4263,      -0.0441,       0.5714,
     0.4286,       0.0000,       0.5714,
     0.4195,      -0.0876,       0.5714,
     0.4618,      -0.0477,       0.2857,
     0.4643,       0.0000,       0.2857,
     0.4545,      -0.0949,       0.2857,
     0.0656,      -0.0282,       3.4286,
     0.1313,      -0.0563,       2.8571,
     0.1969,      -0.0845,       2.2857,
     0.2626,      -0.1127,       1.7143,
     0.3282,      -0.1408,       1.1429,
     0.4087,      -0.1289,       0.5714,
     0.3939,      -0.1690,       0.5714,
     0.4428,      -0.1397,       0.2857,
     0.4267,      -0.1831,       0.2857,
     0.0589,      -0.0404,       3.4286,
     0.1178,      -0.0808,       2.8571,
     0.1767,      -0.1212,       2.2857,
     0.2356,      -0.1617,       1.7143,
     0.2945,      -0.2021,       1.1429,
     0.3754,      -0.2067,       0.5714,
     0.3534,      -0.2425,       0.5714,
     0.4067,      -0.2239,       0.2857,
     0.3828,      -0.2627,       0.2857,
     0.0500,      -0.0510,       3.4286,
     0.1000,      -0.1020,       2.8571,
     0.1500,      -0.1530,       2.2857,
     0.2000,      -0.2040,       1.7143,
     0.2500,      -0.2550,       1.1429,
     0.3282,      -0.2755,       0.5714,
     0.3000,      -0.3060,       0.5714,
     0.3556,      -0.2985,       0.2857,
     0.3250,      -0.3315,       0.2857,
     0.0392,      -0.0597,       3.4286,
     0.0785,      -0.1194,       2.8571,
     0.1177,      -0.1790,       2.2857,
     0.1570,      -0.2387,       1.7143,
     0.1962,      -0.2984,       1.1429,
     0.2690,      -0.3336,       0.5714,
     0.2355,      -0.3581,       0.5714,
     0.2914,      -0.3614,       0.2857,
     0.2551,      -0.3879,       0.2857,
     0.0270,      -0.0661,       3.4286,
     0.0540,      -0.1323,       2.8571,
     0.0810,      -0.1984,       2.2857,
     0.1080,      -0.2645,       1.7143,
     0.1350,      -0.3306,       1.1429,
     0.1621,      -0.3968,       0.5714,
     0.0138,      -0.0701,       3.4286,
     0.0275,      -0.1402,       2.8571,
     0.0413,      -0.2103,       2.2857,
     0.0550,      -0.2804,       1.7143,
     0.0688,      -0.3505,       1.1429,
     0.1229,      -0.4106,       0.5714,
     0.0826,      -0.4205,       0.5714,
     0.1331,      -0.4448,       0.2857,
     0.1756,      -0.4298,       0.2857,
     0.0895,      -0.4556,       0.2857,
     0.0000,      -0.0714,       3.4286,
     0.0000,      -0.1429,       2.8571,
     0.0000,      -0.2143,       2.2857,
     0.0000,      -0.2857,       1.7143,
     0.0000,      -0.3571,       1.1429,
     0.0415,      -0.4266,       0.5714,
     0.0000,      -0.4286,       0.5714,
     0.0449,      -0.4621,       0.2857,
     0.0000,      -0.4643,       0.2857,
    -0.0146,      -0.0699,       3.4286,
    -0.0292,      -0.1398,       2.8571,
    -0.0438,      -0.2098,       2.2857,
    -0.0584,      -0.2797,       1.7143,
    -0.0730,      -0.3496,       1.1429,
    -0.0876,      -0.4195,       0.5714,
    -0.0282,      -0.0656,       3.4286,
    -0.0563,      -0.1313,       2.8571,
    -0.0845,      -0.1969,       2.2857,
    -0.1127,      -0.2626,       1.7143,
    -0.1408,      -0.3282,       1.1429,
    -0.1289,      -0.4087,       0.5714,
    -0.1690,      -0.3939,       0.5714,
    -0.1397,      -0.4428,       0.2857,
    -0.0949,      -0.4545,       0.2857,
    -0.1831,      -0.4267,       0.2857,
    -0.0404,      -0.0589,       3.4286,
    -0.0808,      -0.1178,       2.8571,
    -0.1212,      -0.1767,       2.2857,
    -0.1617,      -0.2356,       1.7143,
    -0.2021,      -0.2945,       1.1429,
    -0.2067,      -0.3754,       0.5714,
    -0.2425,      -0.3534,       0.5714,
    -0.2239,      -0.4067,       0.2857,
    -0.2627,      -0.3828,       0.2857,
    -0.0510,      -0.0500,       3.4286,
    -0.1020,      -0.1000,       2.8571,
    -0.1530,      -0.1500,       2.2857,
    -0.2040,      -0.2000,       1.7143,
    -0.2550,      -0.2500,       1.1429,
    -0.2755,      -0.3282,       0.5714,
    -0.3060,      -0.3000,       0.5714,
    -0.2985,      -0.3556,       0.2857,
    -0.3315,      -0.3250,       0.2857,
    -0.0597,      -0.0392,       3.4286,
    -0.1194,      -0.0785,       2.8571,
    -0.1790,      -0.1177,       2.2857,
    -0.2387,      -0.1570,       1.7143,
    -0.2984,      -0.1962,       1.1429,
    -0.3336,      -0.2690,       0.5714,
    -0.3581,      -0.2355,       0.5714,
    -0.3614,      -0.2914,       0.2857,
    -0.3879,      -0.2551,       0.2857,
    -0.0661,      -0.0270,       3.4286,
    -0.1323,      -0.0540,       2.8571,
    -0.1984,      -0.0810,       2.2857,
    -0.2645,      -0.1080,       1.7143,
    -0.3306,      -0.1350,       1.1429,
    -0.3792,      -0.1997,       0.5714,
    -0.3968,      -0.1621,       0.5714,
    -0.4108,      -0.2163,       0.2857,
    -0.4298,      -0.1756,       0.2857,
    -0.0701,      -0.0138,       3.4286,
    -0.1402,      -0.0275,       2.8571,
    -0.2103,      -0.0413,       2.2857,
    -0.2804,      -0.0550,       1.7143,
    -0.3505,      -0.0688,       1.1429,
    -0.4106,      -0.1229,       0.5714,
    -0.4205,      -0.0826,       0.5714,
    -0.4448,      -0.1331,       0.2857,
    -0.4556,      -0.0895,       0.2857,
    -0.0714,      -0.0000,       3.4286,
    -0.1429,      -0.0000,       2.8571,
    -0.2143,      -0.0000,       2.2857,
    -0.2857,      -0.0000,       1.7143,
    -0.3571,      -0.0000,       1.1429,
    -0.4266,      -0.0415,       0.5714,
    -0.4286,      -0.0000,       0.5714,
    -0.4621,      -0.0449,       0.2857,
    -0.4643,      -0.0000,       0.2857,
    -0.0699,       0.0146,       3.4286,
    -0.1398,       0.0292,       2.8571,
    -0.2098,       0.0438,       2.2857,
    -0.2797,       0.0584,       1.7143,
    -0.3496,       0.0730,       1.1429,
    -0.4195,       0.0876,       0.5714,
    -0.0656,       0.0282,       3.4286,
    -0.1313,       0.0563,       2.8571,
    -0.1969,       0.0845,       2.2857,
    -0.2626,       0.1127,       1.7143,
    -0.3282,       0.1408,       1.1429,
    -0.4087,       0.1289,       0.5714,
    -0.3939,       0.1690,       0.5714,
    -0.4428,       0.1397,       0.2857,
    -0.4545,       0.0949,       0.2857,
    -0.4267,       0.1831,       0.2857,
    -0.0589,       0.0404,       3.4286,
    -0.1178,       0.0808,       2.8571,
    -0.1767,       0.1212,       2.2857,
    -0.2356,       0.1617,       1.7143,
    -0.2945,       0.2021,       1.1429,
    -0.3754,       0.2067,       0.5714,
    -0.3534,       0.2425,       0.5714,
    -0.4067,       0.2239,       0.2857,
    -0.3828,       0.2627,       0.2857,
    -0.0500,       0.0510,       3.4286,
    -0.1000,       0.1020,       2.8571,
    -0.1500,       0.1530,       2.2857,
    -0.2000,       0.2040,       1.7143,
    -0.2500,       0.2550,       1.1429,
    -0.3282,       0.2755,       0.5714,
    -0.3000,       0.3060,       0.5714,
    -0.3556,       0.2985,       0.2857,
    -0.3250,       0.3315,       0.2857,
    -0.0392,       0.0597,       3.4286,
    -0.0785,       0.1194,       2.8571,
    -0.1177,       0.1790,       2.2857,
    -0.1570,       0.2387,       1.7143,
    -0.1962,       0.2984,       1.1429,
    -0.2355,       0.3581,       0.5714,
    -0.0270,       0.0661,       3.4286,
    -0.0540,       0.1323,       2.8571,
    -0.0810,       0.1984,       2.2857,
    -0.1080,       0.2645,       1.7143,
    -0.1350,       0.3306,       1.1429,
    -0.1997,       0.3792,       0.5714,
    -0.1621,       0.3968,       0.5714,
    -0.2163,       0.4108,       0.2857,
    -0.2551,       0.3879,       0.2857,
    -0.1756,       0.4298,       0.2857,
    -0.0138,       0.0701,       3.4286,
    -0.0275,       0.1402,       2.8571,
    -0.0413,       0.2103,       2.2857,
    -0.0550,       0.2804,       1.7143,
    -0.0688,       0.3505,       1.1429,
    -0.0826,       0.4205,       0.5714,
    -0.0000,       0.0714,       3.4286,
    -0.0000,       0.1429,       2.8571,
    -0.0000,       0.2143,       2.2857,
    -0.0000,       0.2857,       1.7143,
    -0.0000,       0.3571,       1.1429,
    -0.0415,       0.4266,       0.5714,
    -0.0000,       0.4286,       0.5714,
    -0.0449,       0.4621,       0.2857,
    -0.0895,       0.4556,       0.2857,
    -0.0000,       0.4643,       0.2857,
     0.0146,       0.0699,       3.4286,
     0.0292,       0.1398,       2.8571,
     0.0438,       0.2098,       2.2857,
     0.0584,       0.2797,       1.7143,
     0.0730,       0.3496,       1.1429,
     0.0876,       0.4195,       0.5714,
     0.0282,       0.0656,       3.4286,
     0.0563,       0.1313,       2.8571,
     0.0845,       0.1969,       2.2857,
     0.1127,       0.2626,       1.7143,
     0.1408,       0.3282,       1.1429,
     0.1289,       0.4087,       0.5714,
     0.1690,       0.3939,       0.5714,
     0.1397,       0.4428,       0.2857,
     0.0949,       0.4545,       0.2857,
     0.1831,       0.4267,       0.2857,
     0.0404,       0.0589,       3.4286,
     0.0808,       0.1178,       2.8571,
     0.1212,       0.1767,       2.2857,
     0.1617,       0.2356,       1.7143,
     0.2021,       0.2945,       1.1429,
     0.2067,       0.3754,       0.5714,
     0.2425,       0.3534,       0.5714,
     0.2239,       0.4067,       0.2857,
     0.2627,       0.3828,       0.2857,
     0.0510,       0.0500,       3.4286,
     0.1020,       0.1000,       2.8571,
     0.1530,       0.1500,       2.2857,
     0.2040,       0.2000,       1.7143,
     0.2550,       0.2500,       1.1429,
     0.2755,       0.3282,       0.5714,
     0.3060,       0.3000,       0.5714,
     0.2985,       0.3556,       0.2857,
     0.3315,       0.3250,       0.2857,
     0.0597,       0.0392,       3.4286,
     0.1194,       0.0785,       2.8571,
     0.1790,       0.1177,       2.2857,
     0.2387,       0.1570,       1.7143,
     0.2984,       0.1962,       1.1429,
     0.3336,       0.2690,       0.5714,
     0.3581,       0.2355,       0.5714,
     0.3614,       0.2914,       0.2857,
     0.3879,       0.2551,       0.2857,
     0.0661,       0.0270,       3.4286,
     0.1323,       0.0540,       2.8571,
     0.1984,       0.0810,       2.2857,
     0.2645,       0.1080,       1.7143,
     0.3306,       0.1350,       1.1429,
     0.3792,       0.1997,       0.5714,
     0.3968,       0.1621,       0.5714,
     0.4108,       0.2163,       0.2857,
     0.4298,       0.1756,       0.2857,
     0.0701,       0.0138,       3.4286,
     0.1402,       0.0275,       2.8571,
     0.2103,       0.0413,       2.2857,
     0.2804,       0.0550,       1.7143,
     0.3505,       0.0688,       1.1429,
     0.4205,       0.0826,       0.5714,
     0.4266,       0.0415,       0.5714,
     0.4621,       0.0449,       0.2857,
     0.4556,       0.0895,       0.2857,
     0.5000,       0.0000,       0.0000,
     0.4894,      -0.1022,       0.0000,
     0.4595,      -0.1971,       0.0000,
     0.4123,      -0.2829,       0.0000,
     0.3500,      -0.3570,       0.0000,
     0.2747,      -0.4178,       0.0000,
     0.1891,      -0.4629,       0.0000,
     0.0963,      -0.4906,       0.0000,
     0.0000,      -0.5000,       0.0000,
    -0.1022,      -0.4894,       0.0000,
    -0.1971,      -0.4595,       0.0000,
    -0.2829,      -0.4123,       0.0000,
    -0.3570,      -0.3500,       0.0000,
    -0.4178,      -0.2747,       0.0000,
    -0.4629,      -0.1891,       0.0000,
    -0.4906,      -0.0963,       0.0000,
    -0.5000,      -0.0000,       0.0000,
    -0.4894,       0.1022,       0.0000,
    -0.4595,       0.1971,       0.0000,
    -0.4123,       0.2829,       0.0000,
    -0.3500,       0.3570,       0.0000,
    -0.2747,       0.4178,       0.0000,
    -0.0963,       0.4906,       0.0000,
    -0.0000,       0.5000,       0.0000,
     0.1022,       0.4894,       0.0000,
     0.1971,       0.4595,       0.0000,
    -0.1891,       0.4629,       0.0000,
     0.2829,       0.4123,       0.0000,
     0.3570,       0.3500,       0.0000,
     0.4178,       0.2747,       0.0000,
     0.4906,       0.0963,       0.0000,
     0.4629,       0.1891,       0.0000,
     0.2500,      -0.2500,       0.0000,
     0.0000,      -0.2500,       0.0000,
     0.0000,       0.0000,       0.0000,
     0.2500,       0.0000,       0.0000,
    -0.2500,      -0.2500,       0.0000,
    -0.2500,       0.0000,       0.0000,
    -0.2500,       0.2500,       0.0000,
     0.0000,       0.2500,       0.0000,
     0.2500,       0.2500,       0.0000,
FACES=
      1,        2,        3,        1,
      4,        5,        2,        1,
      4,        2,        1,        1,
      6,        7,        5,        1,
      6,        5,        4,        1,
      8,        9,        7,        1,
      8,        7,        6,        1,
     10,       11,        9,        1,
     10,        9,        8,        1,
     12,       13,       11,        1,
     10,       14,       12,        1,
     11,       10,       12,        1,
     15,       16,       13,        1,
     15,       13,       12,        1,
     17,       15,       12,        1,
     17,       12,       14,        1,
     18,        1,        3,        1,
     19,        4,        1,        1,
     19,        1,       18,        1,
     20,        6,        4,        1,
     20,        4,       19,        1,
     21,        8,        6,        1,
     21,        6,       20,        1,
     22,       10,        8,        1,
     22,        8,       21,        1,
     23,       14,       10,        1,
     22,       24,       23,        1,
     10,       22,       23,        1,
     25,       17,       14,        1,
     25,       14,       23,        1,
     26,       25,       23,        1,
     26,       23,       24,        1,
     27,       18,        3,        1,
     28,       19,       18,        1,
     28,       18,       27,        1,
     29,       20,       19,        1,
     29,       19,       28,        1,
     30,       21,       20,        1,
     30,       20,       29,        1,
     31,       22,       21,        1,
     31,       21,       30,        1,
     32,       24,       22,        1,
     31,       33,       32,        1,
     22,       31,       32,        1,
     34,       26,       24,        1,
     34,       24,       32,        1,
     35,       34,       32,        1,
     35,       32,       33,        1,
     36,       27,        3,        1,
     37,       28,       27,        1,
     37,       27,       36,        1,
     38,       29,       28,        1,
     38,       28,       37,        1,
     39,       30,       29,        1,
     39,       29,       38,        1,
     40,       31,       30,        1,
     40,       30,       39,        1,
     41,       33,       31,        1,
     40,       42,       41,        1,
     31,       40,       41,        1,
     43,       35,       33,        1,
     43,       33,       41,        1,
     44,       43,       41,        1,
     44,       41,       42,        1,
     45,       36,        3,        1,
     46,       37,       36,        1,
     46,       36,       45,        1,
     47,       38,       37,        1,
     47,       37,       46,        1,
     48,       39,       38,        1,
     48,       38,       47,        1,
     49,       40,       39,        1,
     49,       39,       48,        1,
     50,       42,       40,        1,
     49,       51,       50,        1,
     40,       49,       50,        1,
     52,       44,       42,        1,
     52,       42,       50,        1,
     53,       52,       50,        1,
     53,       50,       51,        1,
     54,       45,        3,        1,
     55,       46,       45,        1,
     55,       45,       54,        1,
     56,       47,       46,        1,
     56,       46,       55,        1,
     57,       48,       47,        1,
     57,       47,       56,        1,
     58,       49,       48,        1,
     58,       48,       57,        1,
     59,       51,       49,        1,
     59,       49,       58,        1,
     60,       54,        3,        1,
     61,       55,       54,        1,
     61,       54,       60,        1,
     62,       56,       55,        1,
     62,       55,       61,        1,
     63,       57,       56,        1,
     63,       56,       62,        1,
     64,       58,       57,        1,
     64,       57,       63,        1,
     65,       59,       58,        1,
     64,       66,       65,        1,
     58,       64,       65,        1,
     67,       68,       59,        1,
     67,       59,       65,        1,
     69,       67,       65,        1,
     69,       65,       66,        1,
     70,       60,        3,        1,
     71,       61,       60,        1,
     71,       60,       70,        1,
     72,       62,       61,        1,
     72,       61,       71,        1,
     73,       63,       62,        1,
     73,       62,       72,        1,
     74,       64,       63,        1,
     74,       63,       73,        1,
     75,       66,       64,        1,
     74,       76,       75,        1,
     64,       74,       75,        1,
     77,       69,       66,        1,
     77,       66,       75,        1,
     78,       77,       75,        1,
     78,       75,       76,        1,
     79,       70,        3,        1,
     80,       71,       70,        1,
     80,       70,       79,        1,
     81,       72,       71,        1,
     81,       71,       80,        1,
     82,       73,       72,        1,
     82,       72,       81,        1,
     83,       74,       73,        1,
     83,       73,       82,        1,
     84,       76,       74,        1,
     84,       74,       83,        1,
     85,       79,        3,        1,
     86,       80,       79,        1,
     86,       79,       85,        1,
     87,       81,       80,        1,
     87,       80,       86,        1,
     88,       82,       81,        1,
     88,       81,       87,        1,
     89,       83,       82,        1,
     89,       82,       88,        1,
     90,       84,       83,        1,
     89,       91,       90,        1,
     83,       89,       90,        1,
     92,       93,       84,        1,
     92,       84,       90,        1,
     94,       92,       90,        1,
     94,       90,       91,        1,
     95,       85,        3,        1,
     96,       86,       85,        1,
     96,       85,       95,        1,
     97,       87,       86,        1,
     97,       86,       96,        1,
     98,       88,       87,        1,
     98,       87,       97,        1,
     99,       89,       88,        1,
     99,       88,       98,        1,
    100,       91,       89,        1,
     99,      101,      100,        1,
     89,       99,      100,        1,
    102,       94,       91,        1,
    102,       91,      100,        1,
    103,      102,      100,        1,
    103,      100,      101,        1,
    104,       95,        3,        1,
    105,       96,       95,        1,
    105,       95,      104,        1,
    106,       97,       96,        1,
    106,       96,      105,        1,
    107,       98,       97,        1,
    107,       97,      106,        1,
    108,       99,       98,        1,
    108,       98,      107,        1,
    109,      101,       99,        1,
    108,      110,      109,        1,
     99,      108,      109,        1,
    111,      103,      101,        1,
    111,      101,      109,        1,
    112,      111,      109,        1,
    112,      109,      110,        1,
    113,      104,        3,        1,
    114,      105,      104,        1,
    114,      104,      113,        1,
    115,      106,      105,        1,
    115,      105,      114,        1,
    116,      107,      106,        1,
    116,      106,      115,        1,
    117,      108,      107,        1,
    117,      107,      116,        1,
    118,      110,      108,        1,
    117,      119,      118,        1,
    108,      117,      118,        1,
    120,      112,      110,        1,
    120,      110,      118,        1,
    121,      120,      118,        1,
    121,      118,      119,        1,
    122,      113,        3,        1,
    123,      114,      113,        1,
    123,      113,      122,        1,
    124,      115,      114,        1,
    124,      114,      123,        1,
    125,      116,      115,        1,
    125,      115,      124,        1,
    126,      117,      116,        1,
    126,      116,      125,        1,
    127,      119,      117,        1,
    126,      128,      127,        1,
    117,      126,      127,        1,
    129,      121,      119,        1,
    129,      119,      127,        1,
    130,      129,      127,        1,
    130,      127,      128,        1,
    131,      122,        3,        1,
    132,      123,      122,        1,
    132,      122,      131,        1,
    133,      124,      123,        1,
    133,      123,      132,        1,
    134,      125,      124,        1,
    134,      124,      133,        1,
    135,      126,      125,        1,
    135,      125,      134,        1,
    136,      128,      126,        1,
    135,      137,      136,        1,
    126,      135,      136,        1,
    138,      130,      128,        1,
    138,      128,      136,        1,
    139,      138,      136,        1,
    139,      136,      137,        1,
    140,      131,        3,        1,
    141,      132,      131,        1,
    141,      131,      140,        1,
    142,      133,      132,        1,
    142,      132,      141,        1,
    143,      134,      133,        1,
    143,      133,      142,        1,
    144,      135,      134,        1,
    144,      134,      143,        1,
    145,      137,      135,        1,
    144,      146,      145,        1,
    135,      144,      145,        1,
    147,      139,      137,        1,
    147,      137,      145,        1,
    148,      147,      145,        1,
    148,      145,      146,        1,
    149,      140,        3,        1,
    150,      141,      140,        1,
    150,      140,      149,        1,
    151,      142,      141,        1,
    151,      141,      150,        1,
    152,      143,      142,        1,
    152,      142,      151,        1,
    153,      144,      143,        1,
    153,      143,      152,        1,
    154,      146,      144,        1,
    154,      144,      153,        1,
    155,      149,        3,        1,
    156,      150,      149,        1,
    156,      149,      155,        1,
    157,      151,      150,        1,
    157,      150,      156,        1,
    158,      152,      151,        1,
    158,      151,      157,        1,
    159,      153,      152,        1,
    159,      152,      158,        1,
    160,      154,      153,        1,
    159,      161,      160,        1,
    153,      159,      160,        1,
    162,      163,      154,        1,
    162,      154,      160,        1,
    164,      162,      160,        1,
    164,      160,      161,        1,
    165,      155,        3,        1,
    166,      156,      155,        1,
    166,      155,      165,        1,
    167,      157,      156,        1,
    167,      156,      166,        1,
    168,      158,      157,        1,
    168,      157,      167,        1,
    169,      159,      158,        1,
    169,      158,      168,        1,
    170,      161,      159,        1,
    169,      171,      170,        1,
    159,      169,      170,        1,
    172,      164,      161,        1,
    172,      161,      170,        1,
    173,      172,      170,        1,
    173,      170,      171,        1,
    174,      165,        3,        1,
    175,      166,      165,        1,
    175,      165,      174,        1,
    176,      167,      166,        1,
    176,      166,      175,        1,
    177,      168,      167,        1,
    177,      167,      176,        1,
    178,      169,      168,        1,
    178,      168,      177,        1,
    179,      171,      169,        1,
    178,      180,      179,        1,
    169,      178,      179,        1,
    181,      173,      171,        1,
    181,      171,      179,        1,
    182,      181,      179,        1,
    182,      179,      180,        1,
    183,      174,        3,        1,
    184,      175,      174,        1,
    184,      174,      183,        1,
    185,      176,      175,        1,
    185,      175,      184,        1,
    186,      177,      176,        1,
    186,      176,      185,        1,
    187,      178,      177,        1,
    187,      177,      186,        1,
    188,      180,      178,        1,
    188,      178,      187,        1,
    189,      183,        3,        1,
    190,      184,      183,        1,
    190,      183,      189,        1,
    191,      185,      184,        1,
    191,      184,      190,        1,
    192,      186,      185,        1,
    192,      185,      191,        1,
    193,      187,      186,        1,
    193,      186,      192,        1,
    194,      188,      187,        1,
    193,      195,      194,        1,
    187,      193,      194,        1,
    196,      197,      188,        1,
    196,      188,      194,        1,
    198,      196,      194,        1,
    198,      194,      195,        1,
    199,      189,        3,        1,
    200,      190,      189,        1,
    200,      189,      199,        1,
    201,      191,      190,        1,
    201,      190,      200,        1,
    202,      192,      191,        1,
    202,      191,      201,        1,
    203,      193,      192,        1,
    203,      192,      202,        1,
    204,      195,      193,        1,
    204,      193,      203,        1,
    205,      199,        3,        1,
    206,      200,      199,        1,
    206,      199,      205,        1,
    207,      201,      200,        1,
    207,      200,      206,        1,
    208,      202,      201,        1,
    208,      201,      207,        1,
    209,      203,      202,        1,
    209,      202,      208,        1,
    210,      204,      203,        1,
    209,      211,      210,        1,
    203,      209,      210,        1,
    212,      213,      204,        1,
    212,      204,      210,        1,
    214,      212,      210,        1,
    214,      210,      211,        1,
    215,      205,        3,        1,
    216,      206,      205,        1,
    216,      205,      215,        1,
    217,      207,      206,        1,
    217,      206,      216,        1,
    218,      208,      207,        1,
    218,      207,      217,        1,
    219,      209,      208,        1,
    219,      208,      218,        1,
    220,      211,      209,        1,
    220,      209,      219,        1,
    221,      215,        3,        1,
    222,      216,      215,        1,
    222,      215,      221,        1,
    223,      217,      216,        1,
    223,      216,      222,        1,
    224,      218,      217,        1,
    224,      217,      223,        1,
    225,      219,      218,        1,
    225,      218,      224,        1,
    226,      220,      219,        1,
    225,      227,      226,        1,
    219,      225,      226,        1,
    228,      229,      220,        1,
    228,      220,      226,        1,
    230,      228,      226,        1,
    230,      226,      227,        1,
    231,      221,        3,        1,
    232,      222,      221,        1,
    232,      221,      231,        1,
    233,      223,      222,        1,
    233,      222,      232,        1,
    234,      224,      223,        1,
    234,      223,      233,        1,
    235,      225,      224,        1,
    235,      224,      234,        1,
    236,      227,      225,        1,
    235,      237,      236,        1,
    225,      235,      236,        1,
    238,      230,      227,        1,
    238,      227,      236,        1,
    239,      238,      236,        1,
    239,      236,      237,        1,
    240,      231,        3,        1,
    241,      232,      231,        1,
    241,      231,      240,        1,
    242,      233,      232,        1,
    242,      232,      241,        1,
    243,      234,      233,        1,
    243,      233,      242,        1,
    244,      235,      234,        1,
    244,      234,      243,        1,
    245,      237,      235,        1,
    244,      246,      245,        1,
    235,      244,      245,        1,
    247,      239,      237,        1,
    247,      237,      245,        1,
    248,      247,      245,        1,
    248,      245,      246,        1,