&HEAD CHID='geom_texture4a' /

&MESH IJK=10,10,10,XB=-1.0,1.0,-1.0,1.0,-1.0,1.0 /
&RADI RADIATION=.FALSE. /

&SURF ID='surf1'
      TEXTURE_MAP='sphere_cover_04.png', COLOR='BLUE',
      TEXTURE_WIDTH=1.0,TEXTURE_HEIGHT=1.0/

&MOVE ID='SPHERE_ROT', AXIS=0.,0.,1., ROTATION_ANGLE=270. /
&GEOM ID='sphere1',SURF_ID='surf1',SPHERE_RADIUS=0.5,
N_LAT=50,N_LONG=50,SPHERE_ORIGIN=0.0,0.0,0.0,MOVE_ID='SPHERE_ROT',
TEXTURE_ORIGIN=0.0,0.0,0.0,
TEXTURE_MAPPING='SPHERICAL' /

