&HEAD CHID='geom_texture' /

&MESH IJK=10,10,10,XB=0.0,1.0,0.0,1.0,0.0,1.0 /
&TIME T_END=0./
&SURF ID='surf1'
      TEXTURE_MAP='nistleft.jpg'
      TEXTURE_WIDTH=0.6
      TEXTURE_HEIGHT=0.2,COLOR='BLUE' /

&GEOM ID='texture',
        VERTS=0.0,0.0,0.0, 1.0,0.0,0.0, 1.0,1.0,0.0,
        FACES=1,2,3,1,SURF_ID='surf1'/
