&HEAD CHID='geom_terrain2' /

&TIME T_END=1.0/
&MESH IJK=40,40,40,XB=-1.0,1.0,-1.0,1.0,-1.0,1.0 /
&VENT XB=-1.0,-1.0,-1.0, 1.0,-1.0,1.0,SURF_ID='OPEN' /
&VENT XB= 1.0, 1.0,-1.0, 1.0,-1.0,1.0,SURF_ID='OPEN' /
&VENT XB=-1.0, 1.0,-1.0,-1.0,-1.0,1.0,SURF_ID='OPEN' /
&VENT XB=-1.0, 1.0, 1.0, 1.0,-1.0,1.0,SURF_ID='OPEN' /
&VENT XB=-1.0, 1.0,-1.0, 1.0, 1.0,1.0,SURF_ID='OPEN' /

&SLCF QUANTITY='CELL PHASE', SLICETYPE='CUT_CELLS'/

&SURF ID='surf1',RGB=255,0,0 /
&SURF ID='surf2',RGB=0,255,0 /
#&GEOM ID='terrain',SURF_ID='surf1',IS_TERRAIN=T,BINARY_FILE='geom_terrain2_terrain.bingeom'/
&GEOM ID='terrain', SURF_ID='surf1','surf2', IS_TERRAIN=T,
 VERTS=
   -1.000000,    -1.000000,    -0.740666,
   -0.894737,    -1.000000,    -0.563244,
   -0.789474,    -1.000000,    -0.348116,
   -0.684211,    -1.000000,    -0.109683,
   -0.578947,    -1.000000,     0.136092,
   -0.473684,    -1.000000,     0.372756,
   -0.368421,    -1.000000,     0.584467,
   -0.263158,    -1.000000,     0.757051,
   -0.157895,    -1.000000,     0.878954,
   -0.052632,    -1.000000,     0.942017,
    0.052632,    -1.000000,     0.942017,
    0.157895,    -1.000000,     0.878954,
    0.263158,    -1.000000,     0.757051,
    0.368421,    -1.000000,     0.584467,
    0.473684,    -1.000000,     0.372756,
    0.578947,    -1.000000,     0.136092,
    0.684211,    -1.000000,    -0.109683,
    0.789474,    -1.000000,    -0.348116,
    0.894737,    -1.000000,    -0.563244,
    1.000000,    -1.000000,    -0.740666,
   -1.000000,    -0.894737,    -0.533599,
   -0.894737,    -0.894737,    -0.352539,
   -0.789474,    -0.894737,    -0.152564,
   -0.684211,    -0.894737,     0.055596,
   -0.578947,    -0.894737,     0.260774,
   -0.473684,    -0.894737,     0.451960,
   -0.368421,    -0.894737,     0.618898,
   -0.263158,    -0.894737,     0.752630,
   -0.157895,    -0.894737,     0.845981,
   -0.052632,    -0.894737,     0.893944,
    0.052632,    -0.894737,     0.893944,
    0.157895,    -0.894737,     0.845981,
    0.263158,    -0.894737,     0.752630,
    0.368421,    -0.894737,     0.618898,
    0.473684,    -0.894737,     0.451960,
    0.578947,    -0.894737,     0.260774,
    0.684211,    -0.894737,     0.055596,
    0.789474,    -0.894737,    -0.152564,
    0.894737,    -0.894737,    -0.352539,
    1.000000,    -0.894737,    -0.533599,
   -1.000000,    -0.789474,    -0.311472,
   -0.894737,    -0.789474,    -0.144088,
   -0.789474,    -0.789474,     0.029320,
   -0.684211,    -0.789474,     0.201503,
   -0.578947,    -0.789474,     0.365260,
   -0.473684,    -0.789474,     0.513745,
   -0.368421,    -0.789474,     0.640748,
   -0.263158,    -0.789474,     0.740960,
   -0.157895,    -0.789474,     0.810191,
   -0.052632,    -0.789474,     0.845546,
    0.052632,    -0.789474,     0.845546,
    0.157895,    -0.789474,     0.810191,
    0.263158,    -0.789474,     0.740960,
    0.368421,    -0.789474,     0.640748,
    0.473684,    -0.789474,     0.513745,
    0.578947,    -0.789474,     0.365260,
    0.684211,    -0.789474,     0.201503,
    0.789474,    -0.789474,     0.029320,
    0.894737,    -0.789474,    -0.144088,
    1.000000,    -0.789474,    -0.311472,
   -1.000000,    -0.684211,    -0.092365,
   -0.894737,    -0.684211,     0.049419,
   -0.789474,    -0.684211,     0.189650,
   -0.684211,    -0.684211,     0.323919,
   -0.578947,    -0.684211,     0.448006,
   -0.473684,    -0.684211,     0.558012,
   -0.368421,    -0.684211,     0.650477,
   -0.263158,    -0.684211,     0.722495,
   -0.157895,    -0.684211,     0.771803,
   -0.052632,    -0.684211,     0.796850,
    0.052632,    -0.684211,     0.796850,
    0.157895,    -0.684211,     0.771803,
    0.263158,    -0.684211,     0.722495,
    0.368421,    -0.684211,     0.650477,
    0.473684,    -0.684211,     0.558012,
    0.578947,    -0.684211,     0.448006,
    0.684211,    -0.684211,     0.323919,
    0.789474,    -0.684211,     0.189650,
    0.894737,    -0.684211,     0.049419,
    1.000000,    -0.684211,    -0.092365,
   -1.000000,    -0.578947,     0.107441,
   -0.894737,    -0.578947,     0.217312,
   -0.789474,    -0.578947,     0.322288,
   -0.684211,    -0.578947,     0.420006,
   -0.578947,    -0.578947,     0.508264,
   -0.473684,    -0.578947,     0.585075,
   -0.368421,    -0.578947,     0.648709,
   -0.263158,    -0.578947,     0.697733,
   -0.157895,    -0.578947,     0.731041,
   -0.052632,    -0.578947,     0.747886,
    0.052632,    -0.578947,     0.747886,
    0.157895,    -0.578947,     0.731041,
    0.263158,    -0.578947,     0.697733,
    0.368421,    -0.578947,     0.648709,
    0.473684,    -0.578947,     0.585075,
    0.578947,    -0.578947,     0.508264,
    0.684211,    -0.578947,     0.420006,
    0.789474,    -0.578947,     0.322288,
    0.894737,    -0.578947,     0.217312,
    1.000000,    -0.578947,     0.107441,
   -1.000000,    -0.473684,     0.274662,
   -0.894737,    -0.473684,     0.351525,
   -0.789474,    -0.473684,     0.423084,
   -0.684211,    -0.473684,     0.488260,
   -0.578947,    -0.473684,     0.546070,
   -0.473684,    -0.473684,     0.595642,
   -0.368421,    -0.473684,     0.636229,
   -0.263158,    -0.473684,     0.667216,
   -0.157895,    -0.473684,     0.688138,
   -0.052632,    -0.473684,     0.698679,
    0.052632,    -0.473684,     0.698679,
    0.157895,    -0.473684,     0.688138,
    0.263158,    -0.473684,     0.667216,
    0.368421,    -0.473684,     0.636229,
    0.473684,    -0.473684,     0.595642,
    0.578947,    -0.473684,     0.546070,
    0.684211,    -0.473684,     0.488260,
    0.789474,    -0.473684,     0.423084,
    0.894737,    -0.473684,     0.351525,
    1.000000,    -0.473684,     0.274662,
   -1.000000,    -0.368421,     0.399898,
   -0.894737,    -0.368421,     0.446982,
   -0.789474,    -0.368421,     0.489984,
   -0.684211,    -0.368421,     0.528512,
   -0.578947,    -0.368421,     0.562215,
   -0.473684,    -0.368421,     0.590784,
   -0.368421,    -0.368421,     0.613958,
   -0.263158,    -0.368421,     0.631527,
   -0.157895,    -0.368421,     0.643329,
   -0.052632,    -0.368421,     0.649258,
    0.052632,    -0.368421,     0.649258,
    0.157895,    -0.368421,     0.643329,
    0.263158,    -0.368421,     0.631527,
    0.368421,    -0.368421,     0.613958,
    0.473684,    -0.368421,     0.590784,
    0.578947,    -0.368421,     0.562215,
    0.684211,    -0.368421,     0.528512,
    0.789474,    -0.368421,     0.489984,
    0.894737,    -0.368421,     0.446982,
    1.000000,    -0.368421,     0.399898,
   -1.000000,    -0.263158,     0.478137,
   -0.894737,    -0.263158,     0.501753,
   -0.789474,    -0.263158,     0.523031,
   -0.684211,    -0.263158,     0.541871,
   -0.578947,    -0.263158,     0.558186,
   -0.473684,    -0.263158,     0.571900,
   -0.368421,    -0.263158,     0.582948,
   -0.263158,    -0.263158,     0.591280,
   -0.157895,    -0.263158,     0.596856,
   -0.052632,    -0.263158,     0.599650,
    0.052632,    -0.263158,     0.599650,
    0.157895,    -0.263158,     0.596856,
    0.263158,    -0.263158,     0.591280,
    0.368421,    -0.263158,     0.582948,
    0.473684,    -0.263158,     0.571900,
    0.578947,    -0.263158,     0.558186,
    0.684211,    -0.263158,     0.541871,
    0.789474,    -0.263158,     0.523031,
    0.894737,    -0.263158,     0.501753,
    1.000000,    -0.263158,     0.478137,
   -1.000000,    -0.157895,     0.508868,
   -0.894737,    -0.157895,     0.516989,
   -0.789474,    -0.157895,     0.524241,
   -0.684211,    -0.157895,     0.530614,
   -0.578947,    -0.157895,     0.536097,
   -0.473684,    -0.157895,     0.540680,
   -0.368421,    -0.157895,     0.544356,
   -0.263158,    -0.157895,     0.547118,
   -0.157895,    -0.157895,     0.548962,
   -0.052632,    -0.157895,     0.549885,
    0.052632,    -0.157895,     0.549885,
    0.157895,    -0.157895,     0.548962,
    0.263158,    -0.157895,     0.547118,
    0.368421,    -0.157895,     0.544356,
    0.473684,    -0.157895,     0.540680,
    0.578947,    -0.157895,     0.536097,
    0.684211,    -0.157895,     0.530614,
    0.789474,    -0.157895,     0.524241,
    0.894737,    -0.157895,     0.516989,
    1.000000,    -0.157895,     0.508868,
   -1.000000,    -0.052632,     0.495798,
   -0.894737,    -0.052632,     0.496635,
   -0.789474,    -0.052632,     0.497380,
   -0.684211,    -0.052632,     0.498032,
   -0.578947,    -0.052632,     0.498590,
   -0.473684,    -0.052632,     0.499056,
   -0.368421,    -0.052632,     0.499429,
   -0.263158,    -0.052632,     0.499709,
   -0.157895,    -0.052632,     0.499895,
   -0.052632,    -0.052632,     0.499988,
    0.052632,    -0.052632,     0.499988,
    0.157895,    -0.052632,     0.499895,
    0.263158,    -0.052632,     0.499709,
    0.368421,    -0.052632,     0.499429,
    0.473684,    -0.052632,     0.499056,
    0.578947,    -0.052632,     0.498590,
    0.684211,    -0.052632,     0.498032,
    0.789474,    -0.052632,     0.497380,
    0.894737,    -0.052632,     0.496635,
    1.000000,    -0.052632,     0.495798,
   -1.000000,     0.052632,     0.446218,
   -0.894737,     0.052632,     0.446972,
   -0.789474,     0.052632,     0.447642,
   -0.684211,     0.052632,     0.448228,
   -0.578947,     0.052632,     0.448731,
   -0.473684,     0.052632,     0.449151,
   -0.368421,     0.052632,     0.449486,
   -0.263158,     0.052632,     0.449738,
   -0.157895,     0.052632,     0.449906,
   -0.052632,     0.052632,     0.449990,
    0.052632,     0.052632,     0.449990,
    0.157895,     0.052632,     0.449906,
    0.263158,     0.052632,     0.449738,
    0.368421,     0.052632,     0.449486,
    0.473684,     0.052632,     0.449151,
    0.578947,     0.052632,     0.448731,
    0.684211,     0.052632,     0.448228,
    0.789474,     0.052632,     0.447642,
    0.894737,     0.052632,     0.446972,
    1.000000,     0.052632,     0.446218,
   -1.000000,     0.157895,     0.370086,
   -0.894737,     0.157895,     0.375992,
   -0.789474,     0.157895,     0.381266,
   -0.684211,     0.157895,     0.385901,
   -0.578947,     0.157895,     0.389889,
   -0.473684,     0.157895,     0.393222,
   -0.368421,     0.157895,     0.395895,
   -0.263158,     0.157895,     0.397904,
   -0.157895,     0.157895,     0.399245,
   -0.052632,     0.157895,     0.399916,
    0.052632,     0.157895,     0.399916,
    0.157895,     0.157895,     0.399245,
    0.263158,     0.157895,     0.397904,
    0.368421,     0.157895,     0.395895,
    0.473684,     0.157895,     0.393222,
    0.578947,     0.157895,     0.389889,
    0.684211,     0.157895,     0.385901,
    0.789474,     0.157895,     0.381266,
    0.894737,     0.157895,     0.375992,
    1.000000,     0.157895,     0.370086,
   -1.000000,     0.263158,     0.278913,
   -0.894737,     0.263158,     0.292689,
   -0.789474,     0.263158,     0.305101,
   -0.684211,     0.263158,     0.316092,
   -0.578947,     0.263158,     0.325609,
   -0.473684,     0.263158,     0.333608,
   -0.368421,     0.263158,     0.340053,
   -0.263158,     0.263158,     0.344913,
   -0.157895,     0.263158,     0.348166,
   -0.052632,     0.263158,     0.349796,
    0.052632,     0.263158,     0.349796,
    0.157895,     0.263158,     0.348166,
    0.263158,     0.263158,     0.344913,
    0.368421,     0.263158,     0.340053,
    0.473684,     0.263158,     0.333608,
    0.578947,     0.263158,     0.325609,
    0.684211,     0.263158,     0.316092,
    0.789474,     0.263158,     0.305101,
    0.894737,     0.263158,     0.292689,
    1.000000,     0.263158,     0.278913,
   -1.000000,     0.368421,     0.184568,
   -0.894737,     0.368421,     0.206299,
   -0.789474,     0.368421,     0.226146,
   -0.684211,     0.368421,     0.243929,
   -0.578947,     0.368421,     0.259484,
   -0.473684,     0.368421,     0.272669,
   -0.368421,     0.368421,     0.283365,
   -0.263158,     0.368421,     0.291474,
   -0.157895,     0.368421,     0.296921,
   -0.052632,     0.368421,     0.299657,
    0.052632,     0.368421,     0.299657,
    0.157895,     0.368421,     0.296921,
    0.263158,     0.368421,     0.291474,
    0.368421,     0.368421,     0.283365,
    0.473684,     0.368421,     0.272669,
    0.578947,     0.368421,     0.259484,
    0.684211,     0.368421,     0.243929,
    0.789474,     0.368421,     0.226146,
    0.894737,     0.368421,     0.206299,
    1.000000,     0.368421,     0.184568,
   -1.000000,     0.473684,     0.098094,
   -0.894737,     0.473684,     0.125545,
   -0.789474,     0.473684,     0.151101,
   -0.684211,     0.473684,     0.174379,
   -0.578947,     0.473684,     0.195025,
   -0.473684,     0.473684,     0.212729,
   -0.368421,     0.473684,     0.227224,
   -0.263158,     0.473684,     0.238292,
   -0.157895,     0.473684,     0.245764,
   -0.052632,     0.473684,     0.249528,
    0.052632,     0.473684,     0.249528,
    0.157895,     0.473684,     0.245764,
    0.263158,     0.473684,     0.238292,
    0.368421,     0.473684,     0.227224,
    0.473684,     0.473684,     0.212729,
    0.578947,     0.473684,     0.195025,
    0.684211,     0.473684,     0.174379,
    0.789474,     0.473684,     0.151101,
    0.894737,     0.473684,     0.125545,
    1.000000,     0.473684,     0.098094,
   -1.000000,     0.578947,     0.028651,
   -0.894737,     0.578947,     0.057950,
   -0.789474,     0.578947,     0.085944,
   -0.684211,     0.578947,     0.112002,
   -0.578947,     0.578947,     0.135537,
   -0.473684,     0.578947,     0.156020,
   -0.368421,     0.578947,     0.172989,
   -0.263158,     0.578947,     0.186062,
   -0.157895,     0.578947,     0.194944,
   -0.052632,     0.578947,     0.199436,
    0.052632,     0.578947,     0.199436,
    0.157895,     0.578947,     0.194944,
    0.263158,     0.578947,     0.186062,
    0.368421,     0.578947,     0.172989,
    0.473684,     0.578947,     0.156020,
    0.578947,     0.578947,     0.135537,
    0.684211,     0.578947,     0.112002,
    0.789474,     0.578947,     0.085944,
    0.894737,     0.578947,     0.057950,
    1.000000,     0.578947,     0.028651,
   -1.000000,     0.684211,    -0.017318,
   -0.894737,     0.684211,     0.009266,
   -0.789474,     0.684211,     0.035559,
   -0.684211,     0.684211,     0.060735,
   -0.578947,     0.684211,     0.084001,
   -0.473684,     0.684211,     0.104627,
   -0.368421,     0.684211,     0.121964,
   -0.263158,     0.684211,     0.135468,
   -0.157895,     0.684211,     0.144713,
   -0.052632,     0.684211,     0.149409,
    0.052632,     0.684211,     0.149409,
    0.157895,     0.684211,     0.144713,
    0.263158,     0.684211,     0.135468,
    0.368421,     0.684211,     0.121964,
    0.473684,     0.684211,     0.104627,
    0.578947,     0.684211,     0.084001,
    0.684211,     0.684211,     0.060735,
    0.789474,     0.684211,     0.035559,
    0.894737,     0.684211,     0.009266,
    1.000000,     0.684211,    -0.017318,
   -1.000000,     0.789474,    -0.036644,
   -0.894737,     0.789474,    -0.016952,
   -0.789474,     0.789474,     0.003449,
   -0.684211,     0.789474,     0.023706,
   -0.578947,     0.789474,     0.042972,
   -0.473684,     0.789474,     0.060441,
   -0.368421,     0.789474,     0.075382,
   -0.263158,     0.789474,     0.087172,
   -0.157895,     0.789474,     0.095317,
   -0.052632,     0.789474,     0.099476,
    0.052632,     0.789474,     0.099476,
    0.157895,     0.789474,     0.095317,
    0.263158,     0.789474,     0.087172,
    0.368421,     0.789474,     0.075382,
    0.473684,     0.789474,     0.060441,
    0.578947,     0.789474,     0.042972,
    0.684211,     0.789474,     0.023706,
    0.789474,     0.789474,     0.003449,
    0.894737,     0.789474,    -0.016952,
    1.000000,     0.789474,    -0.036644,
   -1.000000,     0.894737,    -0.029644,
   -0.894737,     0.894737,    -0.019585,
   -0.789474,     0.894737,    -0.008476,
   -0.684211,     0.894737,     0.003089,
   -0.578947,     0.894737,     0.014487,
   -0.473684,     0.894737,     0.025109,
   -0.368421,     0.894737,     0.034383,
   -0.263158,     0.894737,     0.041813,
   -0.157895,     0.894737,     0.046999,
   -0.052632,     0.894737,     0.049664,
    0.052632,     0.894737,     0.049664,
    0.157895,     0.894737,     0.046999,
    0.263158,     0.894737,     0.041813,
    0.368421,     0.894737,     0.034383,
    0.473684,     0.894737,     0.025109,
    0.578947,     0.894737,     0.014487,
    0.684211,     0.894737,     0.003089,
    0.789474,     0.894737,    -0.008476,
    0.894737,     0.894737,    -0.019585,
    1.000000,     0.894737,    -0.029644,
   -1.000000,     1.000000,     0.000000,
   -0.894737,     1.000000,     0.000000,
   -0.789474,     1.000000,     0.000000,
   -0.684211,     1.000000,     0.000000,
   -0.578947,     1.000000,     0.000000,
   -0.473684,     1.000000,     0.000000,
   -0.368421,     1.000000,     0.000000,
   -0.263158,     1.000000,     0.000000,
   -0.157895,     1.000000,     0.000000,
   -0.052632,     1.000000,     0.000000,
    0.052632,     1.000000,     0.000000,
    0.157895,     1.000000,     0.000000,
    0.263158,     1.000000,     0.000000,
    0.368421,     1.000000,     0.000000,
    0.473684,     1.000000,     0.000000,
    0.578947,     1.000000,     0.000000,
    0.684211,     1.000000,     0.000000,
    0.789474,     1.000000,     0.000000,
    0.894737,     1.000000,     0.000000,
    1.000000,     1.000000,     0.000000,
 FACES=
   1,    2,   22,    1,
   1,   22,   21,    1,
   2,    3,   23,    1,
   2,   23,   22,    1,
   3,    4,   24,    1,
   3,   24,   23,    1,
   4,    5,   25,    1,
   4,   25,   24,    1,
   5,    6,   26,    1,
   5,   26,   25,    1,
   6,    7,   27,    1,
   6,   27,   26,    1,
   7,    8,   28,    1,
   7,   28,   27,    1,
   8,    9,   29,    1,
   8,   29,   28,    1,
   9,   10,   30,    1,
   9,   30,   29,    1,
  10,   11,   31,    1,
  10,   31,   30,    1,
  11,   12,   32,    1,
  11,   32,   31,    1,
  12,   13,   33,    1,
  12,   33,   32,    1,
  13,   14,   34,    1,
  13,   34,   33,    1,
  14,   15,   35,    1,
  14,   35,   34,    1,
  15,   16,   36,    1,
  15,   36,   35,    1,
  16,   17,   37,    1,
  16,   37,   36,    1,
  17,   18,   38,    1,
  17,   38,   37,    1,
  18,   19,   39,    1,
  18,   39,   38,    1,
  19,   20,   40,    1,
  19,   40,   39,    1,
  21,   22,   42,    1,
  21,   42,   41,    1,
  22,   23,   43,    1,
  22,   43,   42,    1,
  23,   24,   44,    1,
  23,   44,   43,    1,
  24,   25,   45,    1,
  24,   45,   44,    1,
  25,   26,   46,    1,
  25,   46,   45,    1,
  26,   27,   47,    1,
  26,   47,   46,    1,
  27,   28,   48,    1,
  27,   48,   47,    1,
  28,   29,   49,    1,
  28,   49,   48,    1,
  29,   30,   50,    1,
  29,   50,   49,    1,
  30,   31,   51,    1,
  30,   51,   50,    1,
  31,   32,   52,    1,
  31,   52,   51,    1,
  32,   33,   53,    1,
  32,   53,   52,    1,
  33,   34,   54,    1,
  33,   54,   53,    1,
  34,   35,   55,    1,
  34,   55,   54,    1,
  35,   36,   56,    1,
  35,   56,   55,    1,
  36,   37,   57,    1,
  36,   57,   56,    1,
  37,   38,   58,    1,
  37,   58,   57,    1,
  38,   39,   59,    1,
  38,   59,   58,    1,
  39,   40,   60,    1,
  39,   60,   59,    1,
  41,   42,   62,    1,
  41,   62,   61,    1,
  42,   43,   63,    1,
  42,   63,   62,    1,
  43,   44,   64,    1,
  43,   64,   63,    1,
  44,   45,   65,    1,
  44,   65,   64,    1,
  45,   46,   66,    1,
  45,   66,   65,    1,
  46,   47,   67,    1,
  46,   67,   66,    1,
  47,   48,   68,    1,
  47,   68,   67,    1,
  48,   49,   69,    1,
  48,   69,   68,    1,
  49,   50,   70,    1,
  49,   70,   69,    1,
  50,   51,   71,    1,
  50,   71,   70,    1,
  51,   52,   72,    1,
  51,   72,   71,    1,
  52,   53,   73,    1,
  52,   73,   72,    1,
  53,   54,   74,    1,
  53,   74,   73,    1,
  54,   55,   75,    1,
  54,   75,   74,    1,
  55,   56,   76,    1,
  55,   76,   75,    1,
  56,   57,   77,    1,
  56,   77,   76,    1,
  57,   58,   78,    1,
  57,   78,   77,    1,
  58,   59,   79,    1,
  58,   79,   78,    1,
  59,   60,   80,    1,
  59,   80,   79,    1,
  61,   62,   82,    1,
  61,   82,   81,    1,
  62,   63,   83,    1,
  62,   83,   82,    1,
  63,   64,   84,    1,
  63,   84,   83,    1,
  64,   65,   85,    1,
  64,   85,   84,    1,
  65,   66,   86,    1,
  65,   86,   85,    1,
  66,   67,   87,    1,
  66,   87,   86,    1,
  67,   68,   88,    1,
  67,   88,   87,    1,
  68,   69,   89,    1,
  68,   89,   88,    1,
  69,   70,   90,    1,
  69,   90,   89,    1,
  70,   71,   91,    1,
  70,   91,   90,    1,
  71,   72,   92,    1,
  71,   92,   91,    1,
  72,   73,   93,    1,
  72,   93,   92,    1,
  73,   74,   94,    1,
  73,   94,   93,    1,
  74,   75,   95,    1,
  74,   95,   94,    1,
  75,   76,   96,    1,
  75,   96,   95,    1,
  76,   77,   97,    1,
  76,   97,   96,    1,
  77,   78,   98,    1,
  77,   98,   97,    1,
  78,   79,   99,    1,
  78,   99,   98,    1,
  79,   80,  100,    1,
  79,  100,   99,    1,
  81,   82,  102,    1,
  81,  102,  101,    1,
  82,   83,  103,    1,
  82,  103,  102,    1,
  83,   84,  104,    1,
  83,  104,  103,    1,
  84,   85,  105,    1,
  84,  105,  104,    1,
  85,   86,  106,    1,
  85,  106,  105,    1,
  86,   87,  107,    1,
  86,  107,  106,    1,
  87,   88,  108,    1,
  87,  108,  107,    1,
  88,   89,  109,    1,
  88,  109,  108,    1,
  89,   90,  110,    1,
  89,  110,  109,    1,
  90,   91,  111,    1,
  90,  111,  110,    1,
  91,   92,  112,    1,
  91,  112,  111,    1,
  92,   93,  113,    1,
  92,  113,  112,    1,
  93,   94,  114,    1,
  93,  114,  113,    1,
  94,   95,  115,    1,
  94,  115,  114,    1,
  95,   96,  116,    1,
  95,  116,  115,    1,
  96,   97,  117,    1,
  96,  117,  116,    1,
  97,   98,  118,    1,
  97,  118,  117,    1,
  98,   99,  119,    1,
  98,  119,  118,    1,
  99,  100,  120,    1,
  99,  120,  119,    1,
 101,  102,  122,    1,
 101,  122,  121,    1,
 102,  103,  123,    1,
 102,  123,  122,    1,
 103,  104,  124,    1,
 103,  124,  123,    1,
 104,  105,  125,    1,
 104,  125,  124,    1,
 105,  106,  126,    1,
 105,  126,  125,    1,
 106,  107,  127,    1,
 106,  127,  126,    1,
 107,  108,  128,    1,
 107,  128,  127,    1,
 108,  109,  129,    1,
 108,  129,  128,    1,
 109,  110,  130,    1,
 109,  130,  129,    1,
 110,  111,  131,    1,
 110,  131,  130,    1,
 111,  112,  132,    1,
 111,  132,  131,    1,
 112,  113,  133,    1,
 112,  133,  132,    1,
 113,  114,  134,    1,
 113,  134,  133,    1,
 114,  115,  135,    1,
 114,  135,  134,    1,
 115,  116,  136,    1,
 115,  136,  135,    1,
 116,  117,  137,    1,
 116,  137,  136,    1,
 117,  118,  138,    1,
 117,  138,  137,    1,
 118,  119,  139,    1,
 118,  139,  138,    1,
 119,  120,  140,    1,
 119,  140,  139,    1,
 121,  122,  142,    1,
 121,  142,  141,    1,
 122,  123,  143,    1,
 122,  143,  142,    1,
 123,  124,  144,    1,
 123,  144,  143,    1,
 124,  125,  145,    1,
 124,  145,  144,    1,
 125,  126,  146,    1,
 125,  146,  145,    1,
 126,  127,  147,    1,
 126,  147,  146,    1,
 127,  128,  148,    1,
 127,  148,  147,    1,
 128,  129,  149,    1,
 128,  149,  148,    1,
 129,  130,  150,    1,
 129,  150,  149,    1,
 130,  131,  151,    1,
 130,  151,  150,    1,
 131,  132,  152,    1,
 131,  152,  151,    1,
 132,  133,  153,    1,
 132,  153,  152,    1,
 133,  134,  154,    1,
 133,  154,  153,    1,
 134,  135,  155,    1,
 134,  155,  154,    1,
 135,  136,  156,    1,
 135,  156,  155,    1,
 136,  137,  157,    1,
 136,  157,  156,    1,
 137,  138,  158,    1,
 137,  158,  157,    1,
 138,  139,  159,    1,
 138,  159,  158,    1,
 139,  140,  160,    1,
 139,  160,  159,    1,
 141,  142,  162,    1,
 141,  162,  161,    1,
 142,  143,  163,    1,
 142,  163,  162,    1,
 143,  144,  164,    1,
 143,  164,  163,    1,
 144,  145,  165,    1,
 144,  165,  164,    1,
 145,  146,  166,    1,
 145,  166,  165,    1,
 146,  147,  167,    1,
 146,  167,  166,    1,
 147,  148,  168,    1,
 147,  168,  167,    1,
 148,  149,  169,    1,
 148,  169,  168,    1,
 149,  150,  170,    1,
 149,  170,  169,    1,
 150,  151,  171,    1,
 150,  171,  170,    1,
 151,  152,  172,    1,
 151,  172,  171,    1,
 152,  153,  173,    1,
 152,  173,  172,    1,
 153,  154,  174,    1,
 153,  174,  173,    1,
 154,  155,  175,    1,
 154,  175,  174,    1,
 155,  156,  176,    1,
 155,  176,  175,    1,
 156,  157,  177,    1,
 156,  177,  176,    1,
 157,  158,  178,    1,
 157,  178,  177,    1,
 158,  159,  179,    1,
 158,  179,  178,    1,
 159,  160,  180,    1,
 159,  180,  179,    1,
 161,  162,  182,    1,
 161,  182,  181,    1,
 162,  163,  183,    1,
 162,  183,  182,    1,
 163,  164,  184,    1,
 163,  184,  183,    1,
 164,  165,  185,    1,
 164,  185,  184,    1,
 165,  166,  186,    1,
 165,  186,  185,    1,
 166,  167,  187,    1,
 166,  187,  186,    1,
 167,  168,  188,    1,
 167,  188,  187,    1,
 168,  169,  189,    1,
 168,  189,  188,    1,
 169,  170,  190,    1,
 169,  190,  189,    1,
 170,  171,  191,    1,
 170,  191,  190,    1,
 171,  172,  192,    1,
 171,  192,  191,    1,
 172,  173,  193,    1,
 172,  193,  192,    1,
 173,  174,  194,    1,
 173,  194,  193,    1,
 174,  175,  195,    1,
 174,  195,  194,    1,
 175,  176,  196,    1,
 175,  196,  195,    1,
 176,  177,  197,    1,
 176,  197,  196,    1,
 177,  178,  198,    1,
 177,  198,  197,    1,
 178,  179,  199,    1,
 178,  199,  198,    1,
 179,  180,  200,    1,
 179,  200,  199,    1,
 181,  182,  202,    1,
 181,  202,  201,    1,
 182,  183,  203,    1,
 182,  203,  202,    1,
 183,  184,  204,    1,
 183,  204,  203,    1,
 184,  185,  205,    1,
 184,  205,  204,    1,
 185,  186,  206,    1,
 185,  206,  205,    1,
 186,  187,  207,    1,
 186,  207,  206,    1,
 187,  188,  208,    1,
 187,  208,  207,    1,
 188,  189,  209,    1,
 188,  209,  208,    1,
 189,  190,  210,    1,
 189,  210,  209,    1,
 190,  191,  211,    1,
 190,  211,  210,    1,
 191,  192,  212,    1,
 191,  212,  211,    1,
 192,  193,  213,    1,
 192,  213,  212,    1,
 193,  194,  214,    1,
 193,  214,  213,    1,
 194,  195,  215,    1,
 194,  215,  214,    1,
 195,  196,  216,    1,
 195,  216,  215,    1,
 196,  197,  217,    1,
 196,  217,  216,    1,
 197,  198,  218,    1,
 197,  218,  217,    1,
 198,  199,  219,    1,
 198,  219,  218,    1,
 199,  200,  220,    1,
 199,  220,  219,    1,
 201,  202,  222,    2,
 201,  222,  221,    2,
 202,  203,  223,    2,
 202,  223,  222,    2,
 203,  204,  224,    2,
 203,  224,  223,    2,
 204,  205,  225,    2,
 204,  225,  224,    2,
 205,  206,  226,    2,
 205,  226,  225,    2,
 206,  207,  227,    2,
 206,  227,  226,    2,
 207,  208,  228,    2,
 207,  228,  227,    2,
 208,  209,  229,    2,
 208,  229,  228,    2,
 209,  210,  230,    2,
 209,  230,  229,    2,
 210,  211,  231,    2,
 210,  231,  230,    2,
 211,  212,  232,    2,
 211,  232,  231,    2,
 212,  213,  233,    2,
 212,  233,  232,    2,
 213,  214,  234,    2,
 213,  234,  233,    2,
 214,  215,  235,    2,
 214,  235,  234,    2,
 215,  216,  236,    2,
 215,  236,  235,    2,
 216,  217,  237,    2,
 216,  237,  236,    2,
 217,  218,  238,    2,
 217,  238,  237,    2,
 218,  219,  239,    2,
 218,  239,  238,    2,
 219,  220,  240,    2,
 219,  240,  239,    2,
 221,  222,  242,    2,
 221,  242,  241,    2,
 222,  223,  243,    2,
 222,  243,  242,    2,
 223,  224,  244,    2,
 223,  244,  243,    2,
 224,  225,  245,    2,
 224,  245,  244,    2,
 225,  226,  246,    2,
 225,  246,  245,    2,
 226,  227,  247,    2,
 226,  247,  246,    2,
 227,  228,  248,    2,
 227,  248,  247,    2,
 228,  229,  249,    2,
 228,  249,  248,    2,
 229,  230,  250,    2,
 229,  250,  249,    2,
 230,  231,  251,    2,
 230,  251,  250,    2,
 231,  232,  252,    2,
 231,  252,  251,    2,
 232,  233,  253,    2,
 232,  253,  252,    2,
 233,  234,  254,    2,
 233,  254,  253,    2,
 234,  235,  255,    2,
 234,  255,  254,    2,
 235,  236,  256,    2,
 235,  256,  255,    2,
 236,  237,  257,    2,
 236,  257,  256,    2,
 237,  238,  258,    2,
 237,  258,  257,    2,
 238,  239,  259,    2,
 238,  259,  258,    2,
 239,  240,  260,    2,
 239,  260,  259,    2,
 241,  242,  262,    2,
 241,  262,  261,    2,
 242,  243,  263,    2,
 242,  263,  262,    2,
 243,  244,  264,    2,
 243,  264,  263,    2,
 244,  245,  265,    2,
 244,  265,  264,    2,
 245,  246,  266,    2,
 245,  266,  265,    2,
 246,  247,  267,    2,
 246,  267,  266,    2,
 247,  248,  268,    2,
 247,  268,  267,    2,
 248,  249,  269,    2,
 248,  269,  268,    2,
 249,  250,  270,    2,
 249,  270,  269,    2,
 250,  251,  271,    2,
 250,  271,  270,    2,
 251,  252,  272,    2,
 251,  272,  271,    2,
 252,  253,  273,    2,
 252,  273,  272,    2,
 253,  254,  274,    2,
 253,  274,  273,    2,
 254,  255,  275,    2,
 254,  275,  274,    2,
 255,  256,  276,    2,
 255,  276,  275,    2,
 256,  257,  277,    2,
 256,  277,  276,    2,
 257,  258,  278,    2,
 257,  278,  277,    2,
 258,  259,  279,    2,
 258,  279,  278,    2,
 259,  260,  280,    2,
 259,  280,  279,    2,
 261,  262,  282,    2,
 261,  282,  281,    2,
 262,  263,  283,    2,
 262,  283,  282,    2,
 263,  264,  284,    2,
 263,  284,  283,    2,
 264,  265,  285,    2,
 264,  285,  284,    2,
 265,  266,  286,    2,
 265,  286,  285,    2,
 266,  267,  287,    2,
 266,  287,  286,    2,
 267,  268,  288,    2,
 267,  288,  287,    2,
 268,  269,  289,    2,
 268,  289,  288,    2,
 269,  270,  290,    2,
 269,  290,  289,    2,
 270,  271,  291,    2,
 270,  291,  290,    2,
 271,  272,  292,    2,
 271,  292,  291,    2,
 272,  273,  293,    2,
 272,  293,  292,    2,
 273,  274,  294,    2,
 273,  294,  293,    2,
 274,  275,  295,    2,
 274,  295,  294,    2,