&HEAD CHID='geom_terrain' /

&TIME T_END=0.0/
&MESH IJK=20,20,20,XB=-1.0,1.0,-1.0,1.0,-1.0,1.0 /

&VENT XB=-1.0,-1.0,-1.0, 1.0,-1.0,1.0,SURF_ID='OPEN' /
&VENT XB= 1.0, 1.0,-1.0, 1.0,-1.0,1.0,SURF_ID='OPEN' /
&VENT XB=-1.0, 1.0,-1.0,-1.0,-1.0,1.0,SURF_ID='OPEN' /
&VENT XB=-1.0, 1.0, 1.0, 1.0,-1.0,1.0,SURF_ID='OPEN' /
&VENT XB=-1.0, 1.0,-1.0, 1.0, 1.0,1.0,SURF_ID='OPEN' /

&SURF ID='surf1',RGB=255,0,0 /

&GEOM ID='terrain',SURF_ID='surf1',ZMIN=-1.0,XB=-1.0,1.0,-1.0,1.0, IJK=20,20,
  ZVALS=
-0.740665694,-0.563243662,-0.348115678,-0.109683334,0.136091684,0.372756139,0.584466696,0.75705054,0.878954166,0.942016822,0.942016822,0.878954166,0.75705054,0.584466696,0.372756139,0.136091684,-0.109683334,-0.348115678,-0.563243662,-0.740665694,
-0.533599259,-0.352538912,-0.15256394,0.055596482,0.260774008,0.451960335,0.61889782,0.752629836,0.845981314,0.893943707,0.893943707,0.845981314,0.752629836,0.61889782,0.451960335,0.260774008,0.055596482,-0.15256394,-0.352538912,-0.533599259,
-0.311471922,-0.144088166,0.029320298,0.201502803,0.365259943,0.513744599,0.640748234,0.740960492,0.810191233,0.845545736,0.845545736,0.810191233,0.740960492,0.640748234,0.513744599,0.365259943,0.201502803,0.029320298,-0.144088166,-0.311471922,
-0.092364913,0.049419095,0.189649697,0.323918983,0.448006426,0.558011548,0.650476525,0.722494877,0.771802829,0.79685047,0.79685047,0.771802829,0.722494877,0.650476525,0.558011548,0.448006426,0.323918983,0.189649697,0.049419095,-0.092364913,
0.107440803,0.217311673,0.322288185,0.420006025,0.508264362,0.585075416,0.648709225,0.69773261,0.73104145,0.747885554,0.747885554,0.73104145,0.69773261,0.648709225,0.585075416,0.508264362,0.420006025,0.322288185,0.217311673,0.107440803,
0.274662418,0.351524705,0.423083787,0.488260105,0.546070388,0.595642496,0.636228567,0.667216309,0.688138233,0.698678703,0.698678703,0.688138233,0.667216309,0.636228567,0.595642496,0.546070388,0.488260105,0.423083787,0.351524705,0.274662418,
0.399898266,0.446981759,0.489983944,0.528512176,0.562214662,0.590783669,0.61395834,0.631527071,0.643329445,0.649257697,0.649257697,0.643329445,0.631527071,0.61395834,0.590783669,0.562214662,0.528512176,0.489983944,0.446981759,0.399898266,
0.478137183,0.501753224,0.523030936,0.541871157,0.558186088,0.571899694,0.582948066,0.591279715,0.596855813,0.599650374,0.599650374,0.596855813,0.591279715,0.582948066,0.571899694,0.558186088,0.541871157,0.523030936,0.501753224,0.478137183,
0.508868201,0.516988581,0.524241386,0.530614445,0.536097063,0.54068004,0.544355685,0.547117829,0.548961838,0.549884616,0.549884616,0.548961838,0.547117829,0.544355685,0.54068004,0.536097063,0.530614445,0.524241386,0.516988581,0.508868201,
0.495798327,0.496635393,0.497379845,0.498031544,0.498590369,0.499056216,0.499428998,0.499708645,0.499895106,0.499988345,0.499988345,0.499895106,0.499708645,0.499428998,0.499056216,0.498590369,0.498031544,0.497379845,0.496635393,0.495798327,
0.446218495,0.446971853,0.44764186,0.448228389,0.448731332,0.449150594,0.449486098,0.449737781,0.449905595,0.44998951,0.44998951,0.449905595,0.449737781,0.449486098,0.449150594,0.448731332,0.448228389,0.44764186,0.446971853,0.446218495,
0.370085965,0.375991695,0.381266462,0.385901414,0.389888773,0.393221847,0.395895043,0.397903876,0.399244973,0.399916085,0.399916085,0.399244973,0.397903876,0.395895043,0.393221847,0.389888773,0.385901414,0.381266462,0.375991695,0.370085965,
0.278913357,0.292689381,0.305101379,0.316091508,0.325608551,0.333608155,0.340053038,0.344913167,0.348165891,0.349796052,0.349796052,0.348165891,0.344913167,0.340053038,0.333608155,0.325608551,0.316091508,0.305101379,0.292689381,0.278913357,
0.18456843,0.206299273,0.226146436,0.243928697,0.25948369,0.272669386,0.283365388,0.291474033,0.296921283,0.299657399,0.299657399,0.296921283,0.291474033,0.283365388,0.272669386,0.25948369,0.243928697,0.226146436,0.206299273,0.18456843,
0.098093721,0.125544537,0.151101353,0.174378609,0.195025139,0.212729463,0.227224488,0.238291539,0.245763655,0.249528108,0.249528108,0.245763655,0.238291539,0.227224488,0.212729463,0.195025139,0.174378609,0.151101353,0.125544537,0.098093721,
0.028650881,0.05794978,0.085943516,0.112001607,0.135537163,0.156020111,0.172989127,0.186062029,0.194944387,0.199436148,0.199436148,0.194944387,0.186062029,0.172989127,0.156020111,0.135537163,0.112001607,0.085943516,0.05794978,0.028650881,
-0.017318421,0.00926608,0.035559318,0.060734809,0.084001205,0.104627165,0.121964348,0.135467789,0.14471303,0.149409463,0.149409463,0.14471303,0.135467789,0.121964348,0.104627165,0.084001205,0.060734809,0.035559318,0.00926608,-0.017318421,
-0.036643756,-0.016951549,0.003449447,0.023706212,0.042971758,0.060440541,0.075382145,0.087171823,0.095316616,0.099475969,0.099475969,0.095316616,0.087171823,0.075382145,0.060440541,0.042971758,0.023706212,0.003449447,-0.016951549,-0.036643756,
-0.029644403,-0.019585495,-0.008475774,0.003088693,0.014487445,0.025108907,0.034383212,0.041812769,0.046998962,0.049663539,0.049663539,0.046998962,0.041812769,0.034383212,0.025108907,0.014487445,0.003088693,-0.008475774,-0.019585495,-0.029644403,
0,0,0,0,0,0,0,0,0,0,0,0,0,0,0,0,0,0,0,0
 /

&TAIL/
