&HEAD CHID='geom_mass_file_test'/
&MESH XB=0,1,0,1,0,1,IJK=40,40,40/
&TIME T_END=0.1/
&DUMP MASS_FILE=T/
&MISC STRATIFICATION=F/
&SURF ID='1',COLOR='RED'/
&GEOM ID='sphere',SURF_ID='1',SPHERE_ORIGIN=0.5,0.5,0.5,SPHERE_RADIUS=0.5,N_LEVELS=5/
&TAIL /
