&HEAD CHID='geom_arch' /

&TIME T_END=0.0 /
&MESH IJK=10,10,10,XB=-1.0,1.0,-1.0,1.0,-1.0,1.0 /

&RADI RADIATION=.FALSE. /

&SURF ID='surf1',RGB=255,0,0 /
&SURF ID='surf2',RGB=0,255,0 /
&SURF ID='surf3',RGB=0,0,255 /

&GEOM ID='arch',SURF_ID='surf3',
VERTS=
0.17923,0.06,0.55161 ,
0.17923,0.01,0.55161 ,
0,0.01,0.58 ,
0,0.06,0.58 ,
0.18541,0.06,0.57063 ,
0,0.06,0.6 ,
0.18541,-0.06,0.57063 ,
0,0,0.6 ,
0,-0.06,0.6 ,
0.17923,-0.06,0.55161 ,
0,-0.06,0.58 ,
0.17923,-0.01,0.55161 ,
0,-0.01,0.58 ,
0.12979,-0.01,0.39944 ,
0,-0.01,0.42 ,
0.12979,-0.06,0.39944 ,
0,-0.06,0.42 ,
0.12361,-0.06,0.38042 ,
0,-0.06,0.4 ,
0.12361,0.06,0.38042 ,
0,0.06,0.4 ,
0.12979,0.01,0.39944 ,
0,0.01,0.42 ,
0,0.06,0.42 ,
0.12979,0.06,0.39944 ,
-0.12361,-0.06,0.38042 ,
-0.12979,-0.06,0.39944 ,
-0.42,-0.06,0 ,
-0.4,-0.06,0 ,
-0.12979,-0.01,0.39944 ,
-0.42,-0.01,0 ,
-0.18541,-0.06,0.57063 ,
-0.18541,0.06,0.57063 ,
-0.6,0.06,0 ,
-0.6,-0.06,0 ,
-0.17923,0.06,0.55161 ,
-0.58,0.06,0 ,
-0.17923,0.01,0.55161 ,
-0.58,0.01,0 ,
-0.12979,0.01,0.39944 ,
-0.42,0.01,0 ,
-0.12979,0.06,0.39944 ,
-0.42,0.06,0 ,
-0.12361,0.06,0.38042 ,
-0.4,0.06,0 ,
-0.17923,-0.01,0.55161 ,
-0.58,-0.01,0 ,
-0.58,-0.06,0 ,
-0.17923,-0.06,0.55161 ,
0.58,0.06,0 ,
0.58,0.01,0 ,
0.6,0.06,0 ,
0.6,-0.06,0 ,
0.58,-0.06,0 ,
0.58,-0.01,0 ,
0.42,-0.01,0 ,
0.42,-0.06,0 ,
0.4,-0.06,0 ,
0.4,0.06,0 ,
0.42,0.06,0 ,
0.42,0.01,0 ,
0.17923,0.043333,0.55161 ,
0.17923,0.026667,0.55161 ,
0.15987,0.01,0.55753 ,
0.14031,0.01,0.56277 ,
0.12059,0.01,0.56733 ,
0.10072,0.01,0.57119 ,
0.08072,0.01,0.57436 ,
0.060627,0.01,0.57682 ,
0.040459,0.01,0.57859 ,
0.020242,0.01,0.57965 ,
0,0.026667,0.58 ,
0,0.043333,0.58 ,
0.020242,0.06,0.57965 ,
0.040459,0.06,0.57859 ,
0.060627,0.06,0.57682 ,
0.08072,0.06,0.57436 ,
0.10072,0.06,0.57119 ,
0.12059,0.06,0.56733 ,
0.14031,0.06,0.56277 ,
0.15987,0.06,0.55753 ,
0.02094,0.06,0.59963 ,
0.041854,0.06,0.59854 ,
0.062717,0.06,0.59671 ,
0.083504,0.06,0.59416 ,
0.10419,0.06,0.59088 ,
0.12475,0.06,0.58689 ,
0.14515,0.06,0.58218 ,
0.16538,0.06,0.57676 ,
0.18541,-0.04,0.57063 ,
0.18541,-0.02,0.57063 ,
0.18541,0,0.57063 ,
0.18541,0.02,0.57063 ,
0.18541,0.04,0.57063 ,
0,-0.02,0.6 ,
0,-0.04,0.6 ,
0,0.04,0.6 ,
0,0.02,0.6 ,
0.02094,-0.06,0.59963 ,
0.041854,-0.06,0.59854 ,
0.062717,-0.06,0.59671 ,
0.083504,-0.06,0.59416 ,
0.10419,-0.06,0.59088 ,
0.12475,-0.06,0.58689 ,
0.14515,-0.06,0.58218 ,
0.16538,-0.06,0.57676 ,
0.020242,-0.06,0.57965 ,
0.040459,-0.06,0.57859 ,
0.060627,-0.06,0.57682 ,
0.08072,-0.06,0.57436 ,
0.10072,-0.06,0.57119 ,
0.12059,-0.06,0.56733 ,
0.14031,-0.06,0.56277 ,
0.15987,-0.06,0.55753 ,
0.17923,-0.035,0.55161 ,
0,-0.035,0.58 ,
0.020242,-0.01,0.57965 ,
0.040459,-0.01,0.57859 ,
0.060627,-0.01,0.57682 ,
0.08072,-0.01,0.57436 ,
0.10072,-0.01,0.57119 ,
0.12059,-0.01,0.56733 ,
0.14031,-0.01,0.56277 ,
0.15987,-0.01,0.55753 ,
0.13597,-0.01,0.41846 ,
0.14215,-0.01,0.43749 ,
0.14833,-0.01,0.45651 ,
0.15451,-0.01,0.47553 ,
0.16069,-0.01,0.49455 ,
0.16687,-0.01,0.51357 ,
0.17305,-0.01,0.53259 ,
0,-0.01,0.56 ,
0,-0.01,0.54 ,
0,-0.01,0.52 ,
0,-0.01,0.5 ,
0,-0.01,0.48 ,
0,-0.01,0.46 ,
0,-0.01,0.44 ,
0.014658,-0.01,0.41974 ,
0.029298,-0.01,0.41898 ,
0.043902,-0.01,0.4177 ,
0.058453,-0.01,0.41591 ,
0.072932,-0.01,0.41362 ,
0.087323,-0.01,0.41082 ,
0.10161,-0.01,0.40752 ,
0.11577,-0.01,0.40373 ,
0.12979,-0.035,0.39944 ,
0,-0.035,0.42 ,
0.014658,-0.06,0.41974 ,
0.029298,-0.06,0.41898 ,
0.043902,-0.06,0.4177 ,
0.058453,-0.06,0.41591 ,
0.072932,-0.06,0.41362 ,
0.087323,-0.06,0.41082 ,
0.10161,-0.06,0.40752 ,
0.11577,-0.06,0.40373 ,
0.01396,-0.06,0.39976 ,
0.027903,-0.06,0.39903 ,
0.041811,-0.06,0.39781 ,
0.055669,-0.06,0.39611 ,
0.069459,-0.06,0.39392 ,
0.083165,-0.06,0.39126 ,
0.096769,-0.06,0.38812 ,
0.11025,-0.06,0.3845 ,
0.12361,0.04,0.38042 ,
0.12361,0.02,0.38042 ,
0.12361,0,0.38042 ,
0.12361,-0.02,0.38042 ,
0.12361,-0.04,0.38042 ,
0,-0.04,0.4 ,
0,-0.02,0.4 ,
0,0,0.4 ,
0,0.02,0.4 ,
0,0.04,0.4 ,
0.01396,0.06,0.39976 ,
0.027903,0.06,0.39903 ,
0.041811,0.06,0.39781 ,
0.055669,0.06,0.39611 ,
0.069459,0.06,0.39392 ,
0.083165,0.06,0.39126 ,
0.096769,0.06,0.38812 ,
0.11025,0.06,0.3845 ,
0.17305,0.01,0.53259 ,
0.16687,0.01,0.51357 ,
0.16069,0.01,0.49455 ,
0.15451,0.01,0.47553 ,
0.14833,0.01,0.45651 ,
0.14215,0.01,0.43749 ,
0.13597,0.01,0.41846 ,
0.11577,0.01,0.40373 ,
0.10161,0.01,0.40752 ,
0.087323,0.01,0.41082 ,
0.072932,0.01,0.41362 ,
0.058453,0.01,0.41591 ,
0.043902,0.01,0.4177 ,
0.029298,0.01,0.41898 ,
0.014658,0.01,0.41974 ,
0,0.01,0.44 ,
0,0.01,0.46 ,
0,0.01,0.48 ,
0,0.01,0.5 ,
0,0.01,0.52 ,
0,0.01,0.54 ,
0,0.01,0.56 ,
0,0.043333,0.42 ,
0,0.026667,0.42 ,
0.014658,0.06,0.41974 ,
0.029298,0.06,0.41898 ,
0.043902,0.06,0.4177 ,
0.058453,0.06,0.41591 ,
0.072932,0.06,0.41362 ,
0.087323,0.06,0.41082 ,
0.10161,0.06,0.40752 ,
0.11577,0.06,0.40373 ,
0.12979,0.026667,0.39944 ,
0.12979,0.043333,0.39944 ,
-0.14697,-0.06,0.39345 ,
-0.16387,-0.06,0.38671 ,
-0.18047,-0.06,0.37925 ,
-0.19673,-0.06,0.37108 ,
-0.21262,-0.06,0.3622 ,
-0.22811,-0.06,0.35265 ,
-0.24317,-0.06,0.34244 ,
-0.25778,-0.06,0.33159 ,
-0.2719,-0.06,0.32011 ,
-0.28551,-0.06,0.30803 ,
-0.29859,-0.06,0.29537 ,
-0.3111,-0.06,0.28216 ,
-0.32303,-0.06,0.26842 ,
-0.33436,-0.06,0.25417 ,
-0.34506,-0.06,0.23945 ,
-0.3551,-0.06,0.22428 ,
-0.36449,-0.06,0.20869 ,
-0.37318,-0.06,0.1927 ,
-0.38118,-0.06,0.17635 ,
-0.38846,-0.06,0.15968 ,
-0.39502,-0.06,0.1427 ,
-0.40083,-0.06,0.12545 ,
-0.40588,-0.06,0.10797 ,
-0.41018,-0.06,0.090288 ,
-0.41371,-0.06,0.072434 ,
-0.41646,-0.06,0.054445 ,
-0.41842,-0.06,0.036354 ,
-0.41961,-0.06,0.018194 ,
-0.39962,-0.06,0.017328 ,
-0.3985,-0.06,0.034622 ,
-0.39662,-0.06,0.051852 ,
-0.39401,-0.06,0.068985 ,
-0.39065,-0.06,0.085988 ,
-0.38656,-0.06,0.10283 ,
-0.38174,-0.06,0.11948 ,
-0.37621,-0.06,0.1359 ,
-0.36997,-0.06,0.15207 ,
-0.36303,-0.06,0.16796 ,
-0.35541,-0.06,0.18352 ,
-0.34713,-0.06,0.19875 ,
-0.33819,-0.06,0.2136 ,
-0.32862,-0.06,0.22805 ,
-0.31844,-0.06,0.24207 ,
-0.30765,-0.06,0.25564 ,
-0.29629,-0.06,0.26872 ,
-0.28437,-0.06,0.28131 ,
-0.27192,-0.06,0.29336 ,
-0.25895,-0.06,0.30486 ,
-0.24551,-0.06,0.3158 ,
-0.23159,-0.06,0.32613 ,
-0.21725,-0.06,0.33586 ,
-0.2025,-0.06,0.34496 ,
-0.18736,-0.06,0.3534 ,
-0.17188,-0.06,0.36119 ,
-0.15607,-0.06,0.3683 ,
-0.13997,-0.06,0.37471 ,
-0.12979,-0.035,0.39944 ,
-0.14697,-0.01,0.39345 ,
-0.16387,-0.01,0.38671 ,
-0.18047,-0.01,0.37925 ,
-0.19673,-0.01,0.37108 ,
-0.21262,-0.01,0.3622 ,
-0.22811,-0.01,0.35265 ,
-0.24317,-0.01,0.34244 ,
-0.25778,-0.01,0.33159 ,
-0.2719,-0.01,0.32011 ,
-0.28551,-0.01,0.30803 ,
-0.29859,-0.01,0.29537 ,
-0.3111,-0.01,0.28216 ,
-0.32303,-0.01,0.26842 ,
-0.33436,-0.01,0.25417 ,
-0.34506,-0.01,0.23945 ,
-0.3551,-0.01,0.22428 ,
-0.36449,-0.01,0.20869 ,
-0.37318,-0.01,0.1927 ,
-0.38118,-0.01,0.17635 ,
-0.38846,-0.01,0.15968 ,
-0.39502,-0.01,0.1427 ,
-0.40083,-0.01,0.12545 ,
-0.40588,-0.01,0.10797 ,
-0.41018,-0.01,0.090288 ,
-0.41371,-0.01,0.072434 ,
-0.41646,-0.01,0.054445 ,
-0.41842,-0.01,0.036354 ,
-0.41961,-0.01,0.018194 ,
-0.42,-0.035,0 ,
-0.18541,-0.04,0.57063 ,
-0.18541,-0.02,0.57063 ,
-0.18541,0,0.57063 ,
-0.18541,0.02,0.57063 ,
-0.18541,0.04,0.57063 ,
-0.20996,0.06,0.56207 ,
-0.23411,0.06,0.55244 ,
-0.25782,0.06,0.54178 ,
-0.28105,0.06,0.53011 ,
-0.30374,0.06,0.51744 ,
-0.32587,0.06,0.50379 ,
-0.34739,0.06,0.4892 ,
-0.36826,0.06,0.47369 ,
-0.38843,0.06,0.4573 ,
-0.40788,0.06,0.44004 ,
-0.42656,0.06,0.42196 ,
-0.44443,0.06,0.40309 ,
-0.46148,0.06,0.38346 ,
-0.47766,0.06,0.3631 ,
-0.49294,0.06,0.34207 ,
-0.50729,0.06,0.3204 ,
-0.5207,0.06,0.29812 ,
-0.53312,0.06,0.27529 ,
-0.54455,0.06,0.25193 ,
-0.55495,0.06,0.22811 ,
-0.56431,0.06,0.20385 ,
-0.57261,0.06,0.17922 ,
-0.57983,0.06,0.15424 ,
-0.58597,0.06,0.12898 ,
-0.59101,0.06,0.10348 ,
-0.59494,0.06,0.077779 ,
-0.59775,0.06,0.051934 ,
-0.59944,0.06,0.025991 ,
-0.6,0.04,0 ,
-0.6,0.02,0 ,
-0.6,0,0 ,
-0.6,-0.02,0 ,
-0.6,-0.04,0 ,
-0.59944,-0.06,0.025991 ,
-0.59775,-0.06,0.051934 ,
-0.59494,-0.06,0.077779 ,
-0.59101,-0.06,0.10348 ,
-0.58597,-0.06,0.12898 ,
-0.57983,-0.06,0.15424 ,
-0.57261,-0.06,0.17922 ,
-0.56431,-0.06,0.20385 ,
-0.55495,-0.06,0.22811 ,
-0.54455,-0.06,0.25193 ,
-0.53312,-0.06,0.27529 ,
-0.5207,-0.06,0.29812 ,
-0.50729,-0.06,0.3204 ,
-0.49294,-0.06,0.34207 ,
-0.47766,-0.06,0.3631 ,
-0.46148,-0.06,0.38346 ,
-0.44443,-0.06,0.40309 ,
-0.42656,-0.06,0.42196 ,
-0.40788,-0.06,0.44004 ,
-0.38843,-0.06,0.4573 ,
-0.36826,-0.06,0.47369 ,
-0.34739,-0.06,0.4892 ,
-0.32587,-0.06,0.50379 ,
-0.30374,-0.06,0.51744 ,
-0.28105,-0.06,0.53011 ,
-0.25782,-0.06,0.54178 ,
-0.23411,-0.06,0.55244 ,
-0.20996,-0.06,0.56207 ,
-0.20296,0.06,0.54333 ,
-0.2263,0.06,0.53403 ,
-0.24922,0.06,0.52372 ,
-0.27168,0.06,0.51244 ,
-0.29362,0.06,0.50019 ,
-0.31501,0.06,0.487 ,
-0.33581,0.06,0.4729 ,
-0.35598,0.06,0.4579 ,
-0.37548,0.06,0.44205 ,
-0.39428,0.06,0.42537 ,
-0.41234,0.06,0.40789 ,
-0.42962,0.06,0.38965 ,
-0.4461,0.06,0.37067 ,
-0.46173,0.06,0.351 ,
-0.47651,0.06,0.33067 ,
-0.49038,0.06,0.30972 ,
-0.50334,0.06,0.28818 ,
-0.51535,0.06,0.26611 ,
-0.52639,0.06,0.24354 ,
-0.53645,0.06,0.2205 ,
-0.5455,0.06,0.19706 ,
-0.55352,0.06,0.17324 ,
-0.56051,0.06,0.1491 ,
-0.56644,0.06,0.12468 ,
-0.57131,0.06,0.10003 ,
-0.57511,0.06,0.075186 ,
-0.57782,0.06,0.050203 ,
-0.57946,0.06,0.025125 ,
-0.17923,0.043333,0.55161 ,
-0.17923,0.026667,0.55161 ,
-0.20296,0.01,0.54333 ,
-0.2263,0.01,0.53403 ,
-0.24922,0.01,0.52372 ,
-0.27168,0.01,0.51244 ,
-0.29362,0.01,0.50019 ,
-0.31501,0.01,0.487 ,
-0.33581,0.01,0.4729 ,
-0.35598,0.01,0.4579 ,
-0.37548,0.01,0.44205 ,
-0.39428,0.01,0.42537 ,
-0.41234,0.01,0.40789 ,
-0.42962,0.01,0.38965 ,
-0.4461,0.01,0.37067 ,
-0.46173,0.01,0.351 ,
-0.47651,0.01,0.33067 ,
-0.49038,0.01,0.30972 ,
-0.50334,0.01,0.28818 ,
-0.51535,0.01,0.26611 ,
-0.52639,0.01,0.24354 ,
-0.53645,0.01,0.2205 ,
-0.5455,0.01,0.19706 ,
-0.55352,0.01,0.17324 ,
-0.56051,0.01,0.1491 ,
-0.56644,0.01,0.12468 ,
-0.57131,0.01,0.10003 ,
-0.57511,0.01,0.075186 ,
-0.57782,0.01,0.050203 ,
-0.57946,0.01,0.025125 ,
-0.58,0.026667,0 ,
-0.58,0.043333,0 ,
-0.17305,0.01,0.53259 ,
-0.16687,0.01,0.51357 ,
-0.16069,0.01,0.49455 ,
-0.15451,0.01,0.47553 ,
-0.14833,0.01,0.45651 ,
-0.14215,0.01,0.43749 ,
-0.13597,0.01,0.41846 ,
-0.14697,0.01,0.39345 ,
-0.16387,0.01,0.38671 ,
-0.18047,0.01,0.37925 ,
-0.19673,0.01,0.37108 ,
-0.21262,0.01,0.3622 ,
-0.22811,0.01,0.35265 ,
-0.24317,0.01,0.34244 ,
-0.25778,0.01,0.33159 ,
-0.2719,0.01,0.32011 ,
-0.28551,0.01,0.30803 ,
-0.29859,0.01,0.29537 ,
-0.3111,0.01,0.28216 ,
-0.32303,0.01,0.26842 ,
-0.33436,0.01,0.25417 ,
-0.34506,0.01,0.23945 ,
-0.3551,0.01,0.22428 ,
-0.36449,0.01,0.20869 ,
-0.37318,0.01,0.1927 ,
-0.38118,0.01,0.17635 ,
-0.38846,0.01,0.15968 ,
-0.39502,0.01,0.1427 ,
-0.40083,0.01,0.12545 ,
-0.40588,0.01,0.10797 ,
-0.41018,0.01,0.090288 ,
-0.41371,0.01,0.072434 ,
-0.41646,0.01,0.054445 ,
-0.41842,0.01,0.036354 ,
-0.41961,0.01,0.018194 ,
-0.44,0.01,0 ,
-0.46,0.01,0 ,
-0.48,0.01,0 ,
-0.5,0.01,0 ,
-0.52,0.01,0 ,
-0.54,0.01,0 ,
-0.56,0.01,0 ,
-0.12979,0.026667,0.39944 ,
-0.12979,0.043333,0.39944 ,
-0.14697,0.06,0.39345 ,
-0.16387,0.06,0.38671 ,
-0.18047,0.06,0.37925 ,
-0.19673,0.06,0.37108 ,
-0.21262,0.06,0.3622 ,
-0.22811,0.06,0.35265 ,
-0.24317,0.06,0.34244 ,
-0.25778,0.06,0.33159 ,
-0.2719,0.06,0.32011 ,
-0.28551,0.06,0.30803 ,
-0.29859,0.06,0.29537 ,
-0.3111,0.06,0.28216 ,
-0.32303,0.06,0.26842 ,
-0.33436,0.06,0.25417 ,
-0.34506,0.06,0.23945 ,
-0.3551,0.06,0.22428 ,
-0.36449,0.06,0.20869 ,
-0.37318,0.06,0.1927 ,
-0.38118,0.06,0.17635 ,
-0.38846,0.06,0.15968 ,
-0.39502,0.06,0.1427 ,
-0.40083,0.06,0.12545 ,
-0.40588,0.06,0.10797 ,
-0.41018,0.06,0.090288 ,
-0.41371,0.06,0.072434 ,
-0.41646,0.06,0.054445 ,
-0.41842,0.06,0.036354 ,
-0.41961,0.06,0.018194 ,
-0.42,0.043333,0 ,
-0.42,0.026667,0 ,
-0.13997,0.06,0.37471 ,
-0.15607,0.06,0.3683 ,
-0.17188,0.06,0.36119 ,
-0.18736,0.06,0.3534 ,
-0.2025,0.06,0.34496 ,
-0.21725,0.06,0.33586 ,
-0.23159,0.06,0.32613 ,
-0.24551,0.06,0.3158 ,
-0.25895,0.06,0.30486 ,
-0.27192,0.06,0.29336 ,
-0.28437,0.06,0.28131 ,
-0.29629,0.06,0.26872 ,
-0.30765,0.06,0.25564 ,
-0.31844,0.06,0.24207 ,
-0.32862,0.06,0.22805 ,
-0.33819,0.06,0.2136 ,
-0.34713,0.06,0.19875 ,
-0.35541,0.06,0.18352 ,
-0.36303,0.06,0.16796 ,
-0.36997,0.06,0.15207 ,
-0.37621,0.06,0.1359 ,
-0.38174,0.06,0.11948 ,
-0.38656,0.06,0.10283 ,
-0.39065,0.06,0.085988 ,
-0.39401,0.06,0.068985 ,
-0.39662,0.06,0.051852 ,
-0.3985,0.06,0.034622 ,
-0.39962,0.06,0.017328 ,
-0.12361,0.04,0.38042 ,
-0.12361,0.02,0.38042 ,
-0.12361,0,0.38042 ,
-0.12361,-0.02,0.38042 ,
-0.12361,-0.04,0.38042 ,
-0.4,-0.04,0 ,
-0.4,-0.02,0 ,
-0.4,0,0 ,
-0.4,0.02,0 ,
-0.4,0.04,0 ,
-0.13597,-0.01,0.41846 ,
-0.14215,-0.01,0.43749 ,
-0.14833,-0.01,0.45651 ,
-0.15451,-0.01,0.47553 ,
-0.16069,-0.01,0.49455 ,
-0.16687,-0.01,0.51357 ,
-0.17305,-0.01,0.53259 ,
-0.20296,-0.01,0.54333 ,
-0.2263,-0.01,0.53403 ,
-0.24922,-0.01,0.52372 ,
-0.27168,-0.01,0.51244 ,
-0.29362,-0.01,0.50019 ,
-0.31501,-0.01,0.487 ,
-0.33581,-0.01,0.4729 ,
-0.35598,-0.01,0.4579 ,
-0.37548,-0.01,0.44205 ,
-0.39428,-0.01,0.42537 ,
-0.41234,-0.01,0.40789 ,
-0.42962,-0.01,0.38965 ,
-0.4461,-0.01,0.37067 ,
-0.46173,-0.01,0.351 ,
-0.47651,-0.01,0.33067 ,
-0.49038,-0.01,0.30972 ,
-0.50334,-0.01,0.28818 ,
-0.51535,-0.01,0.26611 ,
-0.52639,-0.01,0.24354 ,
-0.53645,-0.01,0.2205 ,
-0.5455,-0.01,0.19706 ,
-0.55352,-0.01,0.17324 ,
-0.56051,-0.01,0.1491 ,
-0.56644,-0.01,0.12468 ,
-0.57131,-0.01,0.10003 ,
-0.57511,-0.01,0.075186 ,
-0.57782,-0.01,0.050203 ,
-0.57946,-0.01,0.025125 ,
-0.56,-0.01,0 ,
-0.54,-0.01,0 ,
-0.52,-0.01,0 ,
-0.5,-0.01,0 ,
-0.48,-0.01,0 ,
-0.46,-0.01,0 ,
-0.44,-0.01,0 ,
-0.58,-0.035,0 ,
-0.57946,-0.06,0.025125 ,
-0.57782,-0.06,0.050203 ,
-0.57511,-0.06,0.075186 ,
-0.57131,-0.06,0.10003 ,
-0.56644,-0.06,0.12468 ,
-0.56051,-0.06,0.1491 ,
-0.55352,-0.06,0.17324 ,
-0.5455,-0.06,0.19706 ,
-0.53645,-0.06,0.2205 ,
-0.52639,-0.06,0.24354 ,
-0.51535,-0.06,0.26611 ,
-0.50334,-0.06,0.28818 ,
-0.49038,-0.06,0.30972 ,
-0.47651,-0.06,0.33067 ,
-0.46173,-0.06,0.351 ,
-0.4461,-0.06,0.37067 ,
-0.42962,-0.06,0.38965 ,
-0.41234,-0.06,0.40789 ,
-0.39428,-0.06,0.42537 ,
-0.37548,-0.06,0.44205 ,
-0.35598,-0.06,0.4579 ,
-0.33581,-0.06,0.4729 ,
-0.31501,-0.06,0.487 ,
-0.29362,-0.06,0.50019 ,
-0.27168,-0.06,0.51244 ,
-0.24922,-0.06,0.52372 ,
-0.2263,-0.06,0.53403 ,
-0.20296,-0.06,0.54333 ,
-0.17923,-0.035,0.55161 ,
-0.11577,-0.01,0.40373 ,
-0.10161,-0.01,0.40752 ,
-0.087323,-0.01,0.41082 ,
-0.072932,-0.01,0.41362 ,
-0.058453,-0.01,0.41591 ,
-0.043902,-0.01,0.4177 ,
-0.029298,-0.01,0.41898 ,
-0.014658,-0.01,0.41974 ,
-0.020242,-0.01,0.57965 ,
-0.040459,-0.01,0.57859 ,
-0.060627,-0.01,0.57682 ,
-0.08072,-0.01,0.57436 ,
-0.10072,-0.01,0.57119 ,
-0.12059,-0.01,0.56733 ,
-0.14031,-0.01,0.56277 ,
-0.15987,-0.01,0.55753 ,
-0.020242,-0.06,0.57965 ,
-0.040459,-0.06,0.57859 ,
-0.060627,-0.06,0.57682 ,
-0.08072,-0.06,0.57436 ,
-0.10072,-0.06,0.57119 ,
-0.12059,-0.06,0.56733 ,
-0.14031,-0.06,0.56277 ,
-0.15987,-0.06,0.55753 ,
-0.02094,-0.06,0.59963 ,
-0.041854,-0.06,0.59854 ,
-0.062717,-0.06,0.59671 ,
-0.083504,-0.06,0.59416 ,
-0.10419,-0.06,0.59088 ,
-0.12475,-0.06,0.58689 ,
-0.14515,-0.06,0.58218 ,
-0.16538,-0.06,0.57676 ,
-0.02094,0.06,0.59963 ,
-0.041854,0.06,0.59854 ,
-0.062717,0.06,0.59671 ,
-0.083504,0.06,0.59416 ,
-0.10419,0.06,0.59088 ,
-0.12475,0.06,0.58689 ,
-0.14515,0.06,0.58218 ,
-0.16538,0.06,0.57676 ,
-0.020242,0.06,0.57965 ,
-0.040459,0.06,0.57859 ,
-0.060627,0.06,0.57682 ,
-0.08072,0.06,0.57436 ,
-0.10072,0.06,0.57119 ,
-0.12059,0.06,0.56733 ,
-0.14031,0.06,0.56277 ,
-0.15987,0.06,0.55753 ,
-0.020242,0.01,0.57965 ,
-0.040459,0.01,0.57859 ,
-0.060627,0.01,0.57682 ,
-0.08072,0.01,0.57436 ,
-0.10072,0.01,0.57119 ,
-0.12059,0.01,0.56733 ,
-0.14031,0.01,0.56277 ,
-0.15987,0.01,0.55753 ,
-0.014658,0.01,0.41974 ,
-0.029298,0.01,0.41898 ,
-0.043902,0.01,0.4177 ,
-0.058453,0.01,0.41591 ,
-0.072932,0.01,0.41362 ,
-0.087323,0.01,0.41082 ,
-0.10161,0.01,0.40752 ,
-0.11577,0.01,0.40373 ,
-0.014658,0.06,0.41974 ,
-0.029298,0.06,0.41898 ,
-0.043902,0.06,0.4177 ,
-0.058453,0.06,0.41591 ,
-0.072932,0.06,0.41362 ,
-0.087323,0.06,0.41082 ,
-0.10161,0.06,0.40752 ,
-0.11577,0.06,0.40373 ,
-0.01396,0.06,0.39976 ,
-0.027903,0.06,0.39903 ,
-0.041811,0.06,0.39781 ,
-0.055669,0.06,0.39611 ,
-0.069459,0.06,0.39392 ,
-0.083165,0.06,0.39126 ,
-0.096769,0.06,0.38812 ,
-0.11025,0.06,0.3845 ,
-0.11577,-0.06,0.40373 ,
-0.10161,-0.06,0.40752 ,
-0.087323,-0.06,0.41082 ,
-0.072932,-0.06,0.41362 ,
-0.058453,-0.06,0.41591 ,
-0.043902,-0.06,0.4177 ,
-0.029298,-0.06,0.41898 ,
-0.014658,-0.06,0.41974 ,
-0.01396,-0.06,0.39976 ,
-0.027903,-0.06,0.39903 ,
-0.041811,-0.06,0.39781 ,
-0.055669,-0.06,0.39611 ,
-0.069459,-0.06,0.39392 ,
-0.083165,-0.06,0.39126 ,
-0.096769,-0.06,0.38812 ,
-0.11025,-0.06,0.3845 ,
0.20296,0.06,0.54333 ,
0.2263,0.06,0.53403 ,
0.24922,0.06,0.52372 ,
0.27168,0.06,0.51244 ,
0.29362,0.06,0.50019 ,
0.31501,0.06,0.487 ,
0.33581,0.06,0.4729 ,
0.35598,0.06,0.4579 ,
0.37548,0.06,0.44205 ,
0.39428,0.06,0.42537 ,
0.41234,0.06,0.40789 ,
0.42962,0.06,0.38965 ,
0.4461,0.06,0.37067 ,
0.46173,0.06,0.351 ,
0.47651,0.06,0.33067 ,
0.49038,0.06,0.30972 ,
0.50334,0.06,0.28818 ,
0.51535,0.06,0.26611 ,
0.52639,0.06,0.24354 ,
0.53645,0.06,0.2205 ,
0.5455,0.06,0.19706 ,
0.55352,0.06,0.17324 ,
0.56051,0.06,0.1491 ,
0.56644,0.06,0.12468 ,
0.57131,0.06,0.10003 ,
0.57511,0.06,0.075186 ,
0.57782,0.06,0.050203 ,
0.57946,0.06,0.025125 ,
0.58,0.043333,0 ,
0.58,0.026667,0 ,
0.57946,0.01,0.025125 ,
0.57782,0.01,0.050203 ,
0.57511,0.01,0.075186 ,
0.57131,0.01,0.10003 ,
0.56644,0.01,0.12468 ,
0.56051,0.01,0.1491 ,
0.55352,0.01,0.17324 ,
0.5455,0.01,0.19706 ,
0.53645,0.01,0.2205 ,
0.52639,0.01,0.24354 ,
0.51535,0.01,0.26611 ,
0.50334,0.01,0.28818 ,
0.49038,0.01,0.30972 ,
0.47651,0.01,0.33067 ,
0.46173,0.01,0.351 ,
0.4461,0.01,0.37067 ,
0.42962,0.01,0.38965 ,
0.41234,0.01,0.40789 ,
0.39428,0.01,0.42537 ,
0.37548,0.01,0.44205 ,
0.35598,0.01,0.4579 ,
0.33581,0.01,0.4729 ,
0.31501,0.01,0.487 ,
0.29362,0.01,0.50019 ,
0.27168,0.01,0.51244 ,
0.24922,0.01,0.52372 ,
0.2263,0.01,0.53403 ,
0.20296,0.01,0.54333 ,
0.20996,0.06,0.56207 ,
0.23411,0.06,0.55244 ,
0.25782,0.06,0.54178 ,
0.28105,0.06,0.53011 ,
0.30374,0.06,0.51744 ,
0.32587,0.06,0.50379 ,
0.34739,0.06,0.4892 ,
0.36826,0.06,0.47369 ,
0.38843,0.06,0.4573 ,
0.40788,0.06,0.44004 ,
0.42656,0.06,0.42196 ,
0.44443,0.06,0.40309 ,
0.46148,0.06,0.38346 ,
0.47766,0.06,0.3631 ,
0.49294,0.06,0.34207 ,
0.50729,0.06,0.3204 ,
0.5207,0.06,0.29812 ,
0.53312,0.06,0.27529 ,
0.54455,0.06,0.25193 ,
0.55495,0.06,0.22811 ,
0.56431,0.06,0.20385 ,
0.57261,0.06,0.17922 ,
0.57983,0.06,0.15424 ,
0.58597,0.06,0.12898 ,
0.59101,0.06,0.10348 ,
0.59494,0.06,0.077779 ,
0.59775,0.06,0.051934 ,
0.59944,0.06,0.025991 ,
0.20996,-0.06,0.56207 ,
0.23411,-0.06,0.55244 ,
0.25782,-0.06,0.54178 ,
0.28105,-0.06,0.53011 ,
0.30374,-0.06,0.51744 ,
0.32587,-0.06,0.50379 ,
0.34739,-0.06,0.4892 ,
0.36826,-0.06,0.47369 ,
0.38843,-0.06,0.4573 ,
0.40788,-0.06,0.44004 ,
0.42656,-0.06,0.42196 ,
0.44443,-0.06,0.40309 ,
0.46148,-0.06,0.38346 ,
0.47766,-0.06,0.3631 ,
0.49294,-0.06,0.34207 ,
0.50729,-0.06,0.3204 ,
0.5207,-0.06,0.29812 ,
0.53312,-0.06,0.27529 ,
0.54455,-0.06,0.25193 ,
0.55495,-0.06,0.22811 ,
0.56431,-0.06,0.20385 ,
0.57261,-0.06,0.17922 ,
0.57983,-0.06,0.15424 ,
0.58597,-0.06,0.12898 ,
0.59101,-0.06,0.10348 ,
0.59494,-0.06,0.077779 ,
0.59775,-0.06,0.051934 ,
0.59944,-0.06,0.025991 ,
0.6,-0.04,0 ,
0.6,-0.02,0 ,
0.6,0,0 ,
0.6,0.02,0 ,
0.6,0.04,0 ,
0.20296,-0.06,0.54333 ,
0.2263,-0.06,0.53403 ,
0.24922,-0.06,0.52372 ,
0.27168,-0.06,0.51244 ,
0.29362,-0.06,0.50019 ,
0.31501,-0.06,0.487 ,
0.33581,-0.06,0.4729 ,
0.35598,-0.06,0.4579 ,
0.37548,-0.06,0.44205 ,
0.39428,-0.06,0.42537 ,
0.41234,-0.06,0.40789 ,
0.42962,-0.06,0.38965 ,
0.4461,-0.06,0.37067 ,
0.46173,-0.06,0.351 ,
0.47651,-0.06,0.33067 ,
0.49038,-0.06,0.30972 ,
0.50334,-0.06,0.28818 ,
0.51535,-0.06,0.26611 ,
0.52639,-0.06,0.24354 ,
0.53645,-0.06,0.2205 ,
0.5455,-0.06,0.19706 ,
0.55352,-0.06,0.17324 ,
0.56051,-0.06,0.1491 ,
0.56644,-0.06,0.12468 ,
0.57131,-0.06,0.10003 ,
0.57511,-0.06,0.075186 ,
0.57782,-0.06,0.050203 ,
0.57946,-0.06,0.025125 ,
0.20296,-0.01,0.54333 ,
0.2263,-0.01,0.53403 ,
0.24922,-0.01,0.52372 ,
0.27168,-0.01,0.51244 ,
0.29362,-0.01,0.50019 ,
0.31501,-0.01,0.487 ,
0.33581,-0.01,0.4729 ,
0.35598,-0.01,0.4579 ,
0.37548,-0.01,0.44205 ,
0.39428,-0.01,0.42537 ,
0.41234,-0.01,0.40789 ,
0.42962,-0.01,0.38965 ,
0.4461,-0.01,0.37067 ,
0.46173,-0.01,0.351 ,
0.47651,-0.01,0.33067 ,
0.49038,-0.01,0.30972 ,
0.50334,-0.01,0.28818 ,
0.51535,-0.01,0.26611 ,
0.52639,-0.01,0.24354 ,
0.53645,-0.01,0.2205 ,
0.5455,-0.01,0.19706 ,
0.55352,-0.01,0.17324 ,
0.56051,-0.01,0.1491 ,
0.56644,-0.01,0.12468 ,
0.57131,-0.01,0.10003 ,
0.57511,-0.01,0.075186 ,
0.57782,-0.01,0.050203 ,
0.57946,-0.01,0.025125 ,
0.58,-0.035,0 ,
0.14697,-0.01,0.39345 ,
0.16387,-0.01,0.38671 ,
0.18047,-0.01,0.37925 ,
0.19673,-0.01,0.37108 ,
0.21262,-0.01,0.3622 ,
0.22811,-0.01,0.35265 ,
0.24317,-0.01,0.34244 ,
0.25778,-0.01,0.33159 ,
0.2719,-0.01,0.32011 ,
0.28551,-0.01,0.30803 ,
0.29859,-0.01,0.29537 ,
0.3111,-0.01,0.28216 ,
0.32303,-0.01,0.26842 ,
0.33436,-0.01,0.25417 ,
0.34506,-0.01,0.23945 ,
0.3551,-0.01,0.22428 ,
0.36449,-0.01,0.20869 ,
0.37318,-0.01,0.1927 ,
0.38118,-0.01,0.17635 ,
0.38846,-0.01,0.15968 ,
0.39502,-0.01,0.1427 ,
0.40083,-0.01,0.12545 ,
0.40588,-0.01,0.10797 ,
0.41018,-0.01,0.090288 ,
0.41371,-0.01,0.072434 ,
0.41646,-0.01,0.054445 ,
0.41842,-0.01,0.036354 ,
0.41961,-0.01,0.018194 ,
0.44,-0.01,0 ,
0.46,-0.01,0 ,
0.48,-0.01,0 ,
0.5,-0.01,0 ,
0.52,-0.01,0 ,
0.54,-0.01,0 ,
0.56,-0.01,0 ,
0.14697,-0.06,0.39345 ,
0.16387,-0.06,0.38671 ,
0.18047,-0.06,0.37925 ,
0.19673,-0.06,0.37108 ,
0.21262,-0.06,0.3622 ,
0.22811,-0.06,0.35265 ,
0.24317,-0.06,0.34244 ,
0.25778,-0.06,0.33159 ,
0.2719,-0.06,0.32011 ,
0.28551,-0.06,0.30803 ,
0.29859,-0.06,0.29537 ,
0.3111,-0.06,0.28216 ,
0.32303,-0.06,0.26842 ,
0.33436,-0.06,0.25417 ,
0.34506,-0.06,0.23945 ,
0.3551,-0.06,0.22428 ,
0.36449,-0.06,0.20869 ,
0.37318,-0.06,0.1927 ,
0.38118,-0.06,0.17635 ,
0.38846,-0.06,0.15968 ,
0.39502,-0.06,0.1427 ,
0.40083,-0.06,0.12545 ,
0.40588,-0.06,0.10797 ,
0.41018,-0.06,0.090288 ,
0.41371,-0.06,0.072434 ,
0.41646,-0.06,0.054445 ,
0.41842,-0.06,0.036354 ,
0.41961,-0.06,0.018194 ,
0.42,-0.035,0 ,
0.13997,-0.06,0.37471 ,
0.15607,-0.06,0.3683 ,
0.17188,-0.06,0.36119 ,
0.18736,-0.06,0.3534 ,
0.2025,-0.06,0.34496 ,
0.21725,-0.06,0.33586 ,
0.23159,-0.06,0.32613 ,
0.24551,-0.06,0.3158 ,
0.25895,-0.06,0.30486 ,
0.27192,-0.06,0.29336 ,
0.28437,-0.06,0.28131 ,
0.29629,-0.06,0.26872 ,
0.30765,-0.06,0.25564 ,
0.31844,-0.06,0.24207 ,
0.32862,-0.06,0.22805 ,
0.33819,-0.06,0.2136 ,
0.34713,-0.06,0.19875 ,
0.35541,-0.06,0.18352 ,
0.36303,-0.06,0.16796 ,
0.36997,-0.06,0.15207 ,
0.37621,-0.06,0.1359 ,
0.38174,-0.06,0.11948 ,
0.38656,-0.06,0.10283 ,
0.39065,-0.06,0.085988 ,
0.39401,-0.06,0.068985 ,
0.39662,-0.06,0.051852 ,
0.3985,-0.06,0.034622 ,
0.39962,-0.06,0.017328 ,
0.13997,0.06,0.37471 ,
0.15607,0.06,0.3683 ,
0.17188,0.06,0.36119 ,
0.18736,0.06,0.3534 ,
0.2025,0.06,0.34496 ,
0.21725,0.06,0.33586 ,
0.23159,0.06,0.32613 ,
0.24551,0.06,0.3158 ,
0.25895,0.06,0.30486 ,
0.27192,0.06,0.29336 ,
0.28437,0.06,0.28131 ,
0.29629,0.06,0.26872 ,
0.30765,0.06,0.25564 ,
0.31844,0.06,0.24207 ,
0.32862,0.06,0.22805 ,
0.33819,0.06,0.2136 ,
0.34713,0.06,0.19875 ,
0.35541,0.06,0.18352 ,
0.36303,0.06,0.16796 ,
0.36997,0.06,0.15207 ,
0.37621,0.06,0.1359 ,
0.38174,0.06,0.11948 ,
0.38656,0.06,0.10283 ,
0.39065,0.06,0.085988 ,
0.39401,0.06,0.068985 ,
0.39662,0.06,0.051852 ,
0.3985,0.06,0.034622 ,
0.39962,0.06,0.017328 ,
0.4,0.04,0 ,
0.4,0.02,0 ,
0.4,0,0 ,
0.4,-0.02,0 ,
0.4,-0.04,0 ,
0.14697,0.06,0.39345 ,
0.16387,0.06,0.38671 ,
0.18047,0.06,0.37925 ,
0.19673,0.06,0.37108 ,
0.21262,0.06,0.3622 ,
0.22811,0.06,0.35265 ,
0.24317,0.06,0.34244 ,
0.25778,0.06,0.33159 ,
0.2719,0.06,0.32011 ,
0.28551,0.06,0.30803 ,
0.29859,0.06,0.29537 ,
0.3111,0.06,0.28216 ,
0.32303,0.06,0.26842 ,
0.33436,0.06,0.25417 ,
0.34506,0.06,0.23945 ,
0.3551,0.06,0.22428 ,
0.36449,0.06,0.20869 ,
0.37318,0.06,0.1927 ,
0.38118,0.06,0.17635 ,
0.38846,0.06,0.15968 ,
0.39502,0.06,0.1427 ,
0.40083,0.06,0.12545 ,
0.40588,0.06,0.10797 ,
0.41018,0.06,0.090288 ,
0.41371,0.06,0.072434 ,
0.41646,0.06,0.054445 ,
0.41842,0.06,0.036354 ,
0.41961,0.06,0.018194 ,
0.42,0.043333,0 ,
0.42,0.026667,0 ,
0.44,0.01,0 ,
0.46,0.01,0 ,
0.48,0.01,0 ,
0.5,0.01,0 ,
0.52,0.01,0 ,
0.54,0.01,0 ,
0.56,0.01,0 ,
0.41961,0.01,0.018194 ,
0.41842,0.01,0.036354 ,
0.41646,0.01,0.054445 ,
0.41371,0.01,0.072434 ,
0.41018,0.01,0.090288 ,
0.40588,0.01,0.10797 ,
0.40083,0.01,0.12545 ,
0.39502,0.01,0.1427 ,
0.38846,0.01,0.15968 ,
0.38118,0.01,0.17635 ,
0.37318,0.01,0.1927 ,
0.36449,0.01,0.20869 ,
0.3551,0.01,0.22428 ,
0.34506,0.01,0.23945 ,
0.33436,0.01,0.25417 ,
0.32303,0.01,0.26842 ,
0.3111,0.01,0.28216 ,
0.29859,0.01,0.29537 ,
0.28551,0.01,0.30803 ,
0.2719,0.01,0.32011 ,
0.25778,0.01,0.33159 ,
0.24317,0.01,0.34244 ,
0.22811,0.01,0.35265 ,
0.21262,0.01,0.3622 ,
0.19673,0.01,0.37108 ,
0.18047,0.01,0.37925 ,
0.16387,0.01,0.38671 ,
0.14697,0.01,0.39345 ,
0.15987,0.043333,0.55753 ,
0.15987,0.026667,0.55753 ,
0.14031,0.043333,0.56277 ,
0.14031,0.026667,0.56277 ,
0.12059,0.043333,0.56733 ,
0.12059,0.026667,0.56733 ,
0.10072,0.043333,0.57119 ,
0.10072,0.026667,0.57119 ,
0.08072,0.043333,0.57436 ,
0.08072,0.026667,0.57436 ,
0.060627,0.043333,0.57682 ,
0.060627,0.026667,0.57682 ,
0.040459,0.043333,0.57859 ,
0.040459,0.026667,0.57859 ,
0.020242,0.043333,0.57965 ,
0.020242,0.026667,0.57965 ,
0.16538,-0.04,0.57676 ,
0.16538,-0.02,0.57676 ,
0.16538,0,0.57676 ,
0.16538,0.02,0.57676 ,
0.16538,0.04,0.57676 ,
0.14515,-0.04,0.58218 ,
0.14515,-0.02,0.58218 ,
0.14515,0,0.58218 ,
0.14515,0.02,0.58218 ,
0.14515,0.04,0.58218 ,
0.12475,-0.04,0.58689 ,
0.12475,-0.02,0.58689 ,
0.12475,0,0.58689 ,
0.12475,0.02,0.58689 ,
0.12475,0.04,0.58689 ,
0.10419,-0.04,0.59088 ,
0.10419,-0.02,0.59088 ,
0.10419,0,0.59088 ,
0.10419,0.02,0.59088 ,
0.10419,0.04,0.59088 ,
0.083504,-0.04,0.59416 ,
0.083504,-0.02,0.59416 ,
0.083504,0,0.59416 ,
0.083504,0.02,0.59416 ,
0.083504,0.04,0.59416 ,
0.062717,-0.04,0.59671 ,
0.062717,-0.02,0.59671 ,
0.062717,0,0.59671 ,
0.062717,0.02,0.59671 ,
0.062717,0.04,0.59671 ,
0.041854,-0.04,0.59854 ,
0.041854,-0.02,0.59854 ,
0.041854,0,0.59854 ,
0.041854,0.02,0.59854 ,
0.041854,0.04,0.59854 ,
0.02094,-0.04,0.59963 ,
0.02094,-0.02,0.59963 ,
0.02094,0,0.59963 ,
0.02094,0.02,0.59963 ,
0.02094,0.04,0.59963 ,
0.15987,-0.035,0.55753 ,
0.14031,-0.035,0.56277 ,
0.12059,-0.035,0.56733 ,
0.10072,-0.035,0.57119 ,
0.08072,-0.035,0.57436 ,
0.060627,-0.035,0.57682 ,
0.040459,-0.035,0.57859 ,
0.020242,-0.035,0.57965 ,
0.12128,-0.01,0.42296 ,
0.12679,-0.01,0.44218 ,
0.13231,-0.01,0.46141 ,
0.13782,-0.01,0.48063 ,
0.14333,-0.01,0.49986 ,
0.14884,-0.01,0.51908 ,
0.15436,-0.01,0.53831 ,
0.10645,-0.01,0.42693 ,
0.11128,-0.01,0.44634 ,
0.11612,-0.01,0.46574 ,
0.12096,-0.01,0.48515 ,
0.1258,-0.01,0.50455 ,
0.13064,-0.01,0.52396 ,
0.13548,-0.01,0.54337 ,
0.091481,-0.01,0.43038 ,
0.095639,-0.01,0.44995 ,
0.099798,-0.01,0.46951 ,
0.10396,-0.01,0.48907 ,
0.10811,-0.01,0.50864 ,
0.11227,-0.01,0.5282 ,
0.11643,-0.01,0.54776 ,
0.076405,-0.01,0.43332 ,
0.079878,-0.01,0.45301 ,
0.083351,-0.01,0.47271 ,
0.086824,-0.01,0.4924 ,
0.090297,-0.01,0.5121 ,
0.09377,-0.01,0.5318 ,
0.097243,-0.01,0.55149 ,
0.061236,-0.01,0.43572 ,
0.06402,-0.01,0.45552 ,
0.066803,-0.01,0.47533 ,
0.069587,-0.01,0.49513 ,
0.07237,-0.01,0.51494 ,
0.075153,-0.01,0.53474 ,
0.077937,-0.01,0.55455 ,
0.045993,-0.01,0.43759 ,
0.048083,-0.01,0.45748 ,
0.050174,-0.01,0.47737 ,
0.052264,-0.01,0.49726 ,
0.054355,-0.01,0.51715 ,
0.056445,-0.01,0.53704 ,
0.058536,-0.01,0.55693 ,
0.030693,-0.01,0.43893 ,
0.032088,-0.01,0.45888 ,
0.033483,-0.01,0.47883 ,
0.034878,-0.01,0.49878 ,
0.036273,-0.01,0.51873 ,
0.037668,-0.01,0.53868 ,
0.039064,-0.01,0.55864 ,
0.015356,-0.01,0.43973 ,
0.016054,-0.01,0.45972 ,
0.016752,-0.01,0.47971 ,
0.01745,-0.01,0.4997 ,
0.018148,-0.01,0.51968 ,
0.018846,-0.01,0.53967 ,
0.019544,-0.01,0.55966 ,
0.11577,-0.035,0.40373 ,
0.10161,-0.035,0.40752 ,
0.087323,-0.035,0.41082 ,
0.072932,-0.035,0.41362 ,
0.058453,-0.035,0.41591 ,
0.043902,-0.035,0.4177 ,
0.029298,-0.035,0.41898 ,
0.014658,-0.035,0.41974 ,
0.11025,0.04,0.3845 ,
0.11025,0.02,0.3845 ,
0.11025,0,0.3845 ,
0.11025,-0.02,0.3845 ,
0.11025,-0.04,0.3845 ,
0.096769,0.04,0.38812 ,
0.096769,0.02,0.38812 ,
0.096769,0,0.38812 ,
0.096769,-0.02,0.38812 ,
0.096769,-0.04,0.38812 ,
0.083165,0.04,0.39126 ,
0.083165,0.02,0.39126 ,
0.083165,0,0.39126 ,
0.083165,-0.02,0.39126 ,
0.083165,-0.04,0.39126 ,
0.069459,0.04,0.39392 ,
0.069459,0.02,0.39392 ,
0.069459,0,0.39392 ,
0.069459,-0.02,0.39392 ,
0.069459,-0.04,0.39392 ,
0.055669,0.04,0.39611 ,
0.055669,0.02,0.39611 ,
0.055669,0,0.39611 ,
0.055669,-0.02,0.39611 ,
0.055669,-0.04,0.39611 ,
0.041811,0.04,0.39781 ,
0.041811,0.02,0.39781 ,
0.041811,0,0.39781 ,
0.041811,-0.02,0.39781 ,
0.041811,-0.04,0.39781 ,
0.027903,0.04,0.39903 ,
0.027903,0.02,0.39903 ,
0.027903,0,0.39903 ,
0.027903,-0.02,0.39903 ,
0.027903,-0.04,0.39903 ,
0.01396,0.04,0.39976 ,
0.01396,0.02,0.39976 ,
0.01396,0,0.39976 ,
0.01396,-0.02,0.39976 ,
0.01396,-0.04,0.39976 ,
0.15436,0.01,0.53831 ,
0.14884,0.01,0.51908 ,
0.14333,0.01,0.49986 ,
0.13782,0.01,0.48063 ,
0.13231,0.01,0.46141 ,
0.12679,0.01,0.44218 ,
0.12128,0.01,0.42296 ,
0.13548,0.01,0.54337 ,
0.13064,0.01,0.52396 ,
0.1258,0.01,0.50455 ,
0.12096,0.01,0.48515 ,
0.11612,0.01,0.46574 ,
0.11128,0.01,0.44634 ,
0.10645,0.01,0.42693 ,
0.11643,0.01,0.54776 ,
0.11227,0.01,0.5282 ,
0.10811,0.01,0.50864 ,
0.10396,0.01,0.48907 ,
0.099798,0.01,0.46951 ,
0.095639,0.01,0.44995 ,
0.091481,0.01,0.43038 ,
0.097243,0.01,0.55149 ,
0.09377,0.01,0.5318 ,
0.090297,0.01,0.5121 ,
0.086824,0.01,0.4924 ,
0.083351,0.01,0.47271 ,
0.079878,0.01,0.45301 ,
0.076405,0.01,0.43332 ,
0.077937,0.01,0.55455 ,
0.075153,0.01,0.53474 ,
0.07237,0.01,0.51494 ,
0.069587,0.01,0.49513 ,
0.066803,0.01,0.47533 ,
0.06402,0.01,0.45552 ,
0.061236,0.01,0.43572 ,
0.058536,0.01,0.55693 ,
0.056445,0.01,0.53704 ,
0.054355,0.01,0.51715 ,
0.052264,0.01,0.49726 ,
0.050174,0.01,0.47737 ,
0.048083,0.01,0.45748 ,
0.045993,0.01,0.43759 ,
0.039064,0.01,0.55864 ,
0.037668,0.01,0.53868 ,