! Generated by BlenderFDS 4.2.0 on Blender 2.79 (sub 0)
! Case: geom_self_intersection (from Blender Scene)
! Description: Self intersecting geometry
! Date: Fri, 08 Jun 2018, 11:30:57
! File: broken_GEOMs.blend

&HEAD CHID='geom_self_intersection' TITLE='Self intersecting geometry' /
&TIME T_END=1.0 /
&RADI RADIATION=.FALSE. /

! 1000 mesh cells of size 0.400x0.400x0.400 m
&MESH ID='Domain' IJK=20,20,20 XB=-2.000,2.000,-2.000,2.000,0.000,4.000 /
! 1 surf_id, 24 vertices, 44 faces
&GEOM ID='Cube_self_intersection2' SURF_ID='INERT'
      VERTS=
            1.000000, 1.000000, 0.000000,
            1.000000, -1.000000, 0.000000,
            -1.000000, -1.000000, 0.000000,
            -1.000000, 1.000000, 0.000000,
            1.000000, 1.000000, 2.000000,
            1.000000, -1.000000, 2.000000,
            -1.000000, 1.000000, 2.000000,
            -1.000000, -1.000000, 2.000000,
            1.000000, 1.000000, 3.000000,
            1.000000, -1.000000, 3.000000,
            -1.000000, 1.000000, 3.000000,
            -1.000000, -1.000000, 3.000000,
            1.200000, 1.000000, 2.000000,
            1.200000, -1.000000, 2.000000,
            1.200000, 1.000000, 3.000000,
            1.200000, -1.000000, 3.000000,
            1.700000, 1.000000, 2.000000,
            1.700000, -1.000000, 2.000000,
            1.700000, 1.000000, 3.000000,
            1.700000, -1.000000, 3.000000,
            0.700000, 1.000000, 1.000000,
            0.700000, -1.000000, 1.000000,
            1.200000, 1.000000, 1.000000,
            1.200000, -1.000000, 1.000000,
      FACES=
            2,4,1, 1,
            10,8,6, 1,
            6,3,2, 1,
            5,2,1, 1,
            8,4,3, 1,
            7,1,4, 1,
            11,10,9, 1,
            14,10,6, 1,
            12,7,8, 1,
            11,5,7, 1,
            18,16,14, 1,
            13,6,5, 1,
            15,5,9, 1,
            16,9,10, 1,
            19,18,17, 1,
            24,17,18, 1,
            19,13,15, 1,
            20,15,16, 1,
            23,22,21, 1,
            14,24,18, 1,
            21,14,13, 1,
            23,13,17, 1,
            2,3,4, 1,
            10,12,8, 1,
            6,8,3, 1,
            5,6,2, 1,
            8,7,4, 1,
            7,5,1, 1,
            11,12,10, 1,
            14,16,10, 1,
            12,11,7, 1,
            11,9,5, 1,
            18,20,16, 1,
            13,14,6, 1,
            15,13,5, 1,
            16,15,9, 1,
            19,20,18, 1,
            24,23,17, 1,
            19,17,13, 1,
            20,19,15, 1,
            23,24,22, 1,
            14,22,24, 1,
            21,22,14, 1,
            23,21,13, 1, /

&TAIL /
! Generated in 0 s.
