&HEAD CHID='sphere_leak', TITLE='Test leakage from a sealed sphere' /

&MESH IJK=32,32,32, XB=-1.6,1.6,-1.6,1.6,-1.6,1.6 /
&TIME T_END=100. /
&PRES SOLVER='ULMAT'/
&ZONE XYZ=0.1,0.1,0.1, LEAK_AREA(0)=0.0001 /

&VENT MB='XMIN', SURF_ID='OPEN' /
&VENT MB='XMAX', SURF_ID='OPEN' /
&VENT MB='YMIN', SURF_ID='OPEN' /
&VENT MB='YMAX', SURF_ID='OPEN' /
&VENT MB='ZMIN', SURF_ID='OPEN' /
&VENT MB='ZMAX', SURF_ID='OPEN' /

&OBST XB=-0.1,0.1,-0.1,0.1,-0.1,0.1, SURF_IDS='BLOWER_IN','INERT','INERT' /

&SURF ID='WALL_IN',  COLOR='GRAY',  ADIABATIC=T, LEAK_PATH=1,0 /
&SURF ID='WALL_OUT', COLOR='GREEN', ADIABATIC=T, LEAK_PATH=1,0 /
&SURF ID='BLOWER_IN', COLOR='RED', VEL=-0.2, TAU_V=0. /

&SLCF PBY=0, QUANTITY='VELOCITY', VECTOR=T /
&SLCF PBY=0, QUANTITY='TEMPERATURE' /
&SLCF PBY=0, QUANTITY='PRESSURE' /
&SLCF PBY=0, QUANTITY='PRESSURE ZONE', CELL_CENTERED=T /
&SLCF PBY=0, SLICETYPE='CUT_CELLS'  /

&DEVC ID='Pressure', XYZ=0,0,0, QUANTITY='PRESSURE' /


# Geometry:
&GEOM ID='SPHERE_SHELL', SURF_ID='WALL_IN','WALL_IN','WALL_OUT'
VERTS=
     0.00000000,       0.00000000,       0.75000000,
    -0.07587624,      -0.00000000,       0.74615199,
    -0.07441830,      -0.01480272,       0.74615199,
    -0.07010051,      -0.02903658,       0.74615199,
    -0.06308879,      -0.04215458,       0.74615199,
    -0.05365260,      -0.05365260,       0.74615199,
    -0.04215458,      -0.06308879,       0.74615199,
    -0.02903658,      -0.07010051,       0.74615199,
    -0.01480272,      -0.07441830,       0.74615199,
     0.00000000,      -0.07587624,       0.74615199,
     0.01480272,      -0.07441830,       0.74615199,
     0.02903658,      -0.07010051,       0.74615199,
     0.04215458,      -0.06308879,       0.74615199,
     0.05365260,      -0.05365260,       0.74615199,
     0.06308879,      -0.04215458,       0.74615199,
     0.07010051,      -0.02903658,       0.74615199,
     0.07441830,      -0.01480272,       0.74615199,
     0.07587624,       0.00000000,       0.74615199,
     0.07441830,       0.01480272,       0.74615199,
     0.07010051,       0.02903658,       0.74615199,
     0.06308879,       0.04215458,       0.74615199,
     0.05365260,       0.05365260,       0.74615199,
     0.04215458,       0.06308879,       0.74615199,
     0.02903658,       0.07010051,       0.74615199,
     0.01480272,       0.07441830,       0.74615199,
     0.00000000,       0.07587624,       0.74615199,
    -0.01480272,       0.07441830,       0.74615199,
    -0.02903658,       0.07010051,       0.74615199,
    -0.04215458,       0.06308879,       0.74615199,
    -0.05365260,       0.05365260,       0.74615199,
    -0.06308879,       0.04215458,       0.74615199,
    -0.07010051,       0.02903658,       0.74615199,
    -0.07441830,       0.01480272,       0.74615199,
    -0.15097389,      -0.00000000,       0.73464746,
    -0.14807297,      -0.02945354,       0.73464746,
    -0.13948169,      -0.05777521,       0.73464746,
    -0.12553020,      -0.08387660,       0.73464746,
    -0.10675466,      -0.10675466,       0.73464746,
    -0.08387660,      -0.12553020,       0.73464746,
    -0.05777521,      -0.13948169,       0.73464746,
    -0.02945354,      -0.14807297,       0.73464746,
     0.00000000,      -0.15097389,       0.73464746,
     0.02945354,      -0.14807297,       0.73464746,
     0.05777521,      -0.13948169,       0.73464746,
     0.08387660,      -0.12553020,       0.73464746,
     0.10675466,      -0.10675466,       0.73464746,
     0.12553020,      -0.08387660,       0.73464746,
     0.13948169,      -0.05777521,       0.73464746,
     0.14807297,      -0.02945354,       0.73464746,
     0.15097389,       0.00000000,       0.73464746,
     0.14807297,       0.02945354,       0.73464746,
     0.13948169,       0.05777521,       0.73464746,
     0.12553020,       0.08387660,       0.73464746,
     0.10675466,       0.10675466,       0.73464746,
     0.08387660,       0.12553020,       0.73464746,
     0.05777521,       0.13948169,       0.73464746,
     0.02945354,       0.14807297,       0.73464746,
     0.00000000,       0.15097389,       0.73464746,
    -0.02945354,       0.14807297,       0.73464746,
    -0.05777521,       0.13948169,       0.73464746,
    -0.08387660,       0.12553020,       0.73464746,
    -0.10675466,       0.10675466,       0.73464746,
    -0.12553020,       0.08387660,       0.73464746,
    -0.13948169,       0.05777521,       0.73464746,
    -0.14807297,       0.02945354,       0.73464746,
    -0.22452234,      -0.00000000,       0.71560444,
    -0.22020821,      -0.04380214,       0.71560444,
    -0.20743160,      -0.08592098,       0.71560444,
    -0.18668350,      -0.12473793,       0.71560444,
    -0.15876127,      -0.15876127,       0.71560444,
    -0.12473793,      -0.18668350,       0.71560444,
    -0.08592098,      -0.20743160,       0.71560444,
    -0.04380214,      -0.22020821,       0.71560444,
     0.00000000,      -0.22452234,       0.71560444,
     0.04380214,      -0.22020821,       0.71560444,
     0.08592098,      -0.20743160,       0.71560444,
     0.12473793,      -0.18668350,       0.71560444,
     0.15876127,      -0.15876127,       0.71560444,
     0.18668350,      -0.12473793,       0.71560444,
     0.20743160,      -0.08592098,       0.71560444,
     0.22020821,      -0.04380214,       0.71560444,
     0.22452234,       0.00000000,       0.71560444,
     0.22020821,       0.04380214,       0.71560444,
     0.20743160,       0.08592098,       0.71560444,
     0.18668350,       0.12473793,       0.71560444,
     0.15876127,       0.15876127,       0.71560444,
     0.12473793,       0.18668350,       0.71560444,
     0.08592098,       0.20743160,       0.71560444,
     0.04380214,       0.22020821,       0.71560444,
     0.00000000,       0.22452234,       0.71560444,
    -0.04380214,       0.22020821,       0.71560444,
    -0.08592098,       0.20743160,       0.71560444,
    -0.12473793,       0.18668350,       0.71560444,
    -0.15876127,       0.15876127,       0.71560444,
    -0.18668350,       0.12473793,       0.71560444,
    -0.20743160,       0.08592098,       0.71560444,
    -0.22020821,       0.04380214,       0.71560444,
    -0.29576689,      -0.00000000,       0.68921836,
    -0.29008381,      -0.05770126,       0.68921836,
    -0.27325298,      -0.11318509,       0.68921836,
    -0.24592118,      -0.16431928,       0.68921836,
    -0.20913877,      -0.20913877,       0.68921836,
    -0.16431928,      -0.24592118,       0.68921836,
    -0.11318509,      -0.27325298,       0.68921836,
    -0.05770126,      -0.29008381,       0.68921836,
     0.00000000,      -0.29576689,       0.68921836,
     0.05770126,      -0.29008381,       0.68921836,
     0.11318509,      -0.27325298,       0.68921836,
     0.16431928,      -0.24592118,       0.68921836,
     0.20913877,      -0.20913877,       0.68921836,
     0.24592118,      -0.16431928,       0.68921836,
     0.27325298,      -0.11318509,       0.68921836,
     0.29008381,      -0.05770126,       0.68921836,
     0.29576689,       0.00000000,       0.68921836,
     0.29008381,       0.05770126,       0.68921836,
     0.27325298,       0.11318509,       0.68921836,
     0.24592118,       0.16431928,       0.68921836,
     0.20913877,       0.20913877,       0.68921836,
     0.16431928,       0.24592118,       0.68921836,
     0.11318509,       0.27325298,       0.68921836,
     0.05770126,       0.29008381,       0.68921836,
     0.00000000,       0.29576689,       0.68921836,
    -0.05770126,       0.29008381,       0.68921836,
    -0.11318509,       0.27325298,       0.68921836,
    -0.16431928,       0.24592118,       0.68921836,
    -0.20913877,       0.20913877,       0.68921836,
    -0.24592118,       0.16431928,       0.68921836,
    -0.27325298,       0.11318509,       0.68921836,
    -0.29008381,       0.05770126,       0.68921836,
    -0.36397647,      -0.00000000,       0.65575996,
    -0.35698277,      -0.07100829,       0.65575996,
    -0.33627041,      -0.13928777,       0.65575996,
    -0.30263538,      -0.20221449,       0.65575996,
    -0.25737023,      -0.25737023,       0.65575996,
    -0.20221449,      -0.30263538,       0.65575996,
    -0.13928777,      -0.33627041,       0.65575996,
    -0.07100829,      -0.35698277,       0.65575996,
     0.00000000,      -0.36397647,       0.65575996,
     0.07100829,      -0.35698277,       0.65575996,
     0.13928777,      -0.33627041,       0.65575996,
     0.20221449,      -0.30263538,       0.65575996,
     0.25737023,      -0.25737023,       0.65575996,
     0.30263538,      -0.20221449,       0.65575996,
     0.33627041,      -0.13928777,       0.65575996,
     0.35698277,      -0.07100829,       0.65575996,
     0.36397647,       0.00000000,       0.65575996,
     0.35698277,       0.07100829,       0.65575996,
     0.33627041,       0.13928777,       0.65575996,
     0.30263538,       0.20221449,       0.65575996,
     0.25737023,       0.25737023,       0.65575996,
     0.20221449,       0.30263538,       0.65575996,
     0.13928777,       0.33627041,       0.65575996,
     0.07100829,       0.35698277,       0.65575996,
     0.00000000,       0.36397647,       0.65575996,
    -0.07100829,       0.35698277,       0.65575996,
    -0.13928777,       0.33627041,       0.65575996,
    -0.20221449,       0.30263538,       0.65575996,
    -0.25737023,       0.25737023,       0.65575996,
    -0.30263538,       0.20221449,       0.65575996,
    -0.33627041,       0.13928777,       0.65575996,
    -0.35698277,       0.07100829,       0.65575996,
    -0.42845116,      -0.00000000,       0.61557258,
    -0.42021859,      -0.08358668,       0.61557258,
    -0.39583726,      -0.16396116,       0.61557258,
    -0.35624412,      -0.23803471,       0.61557258,
    -0.30296072,      -0.30296072,       0.61557258,
    -0.23803471,      -0.35624412,       0.61557258,
    -0.16396116,      -0.39583726,       0.61557258,
    -0.08358668,      -0.42021859,       0.61557258,
     0.00000000,      -0.42845116,       0.61557258,
     0.08358668,      -0.42021859,       0.61557258,
     0.16396116,      -0.39583726,       0.61557258,
     0.23803471,      -0.35624412,       0.61557258,
     0.30296072,      -0.30296072,       0.61557258,
     0.35624412,      -0.23803471,       0.61557258,
     0.39583726,      -0.16396116,       0.61557258,
     0.42021859,      -0.08358668,       0.61557258,
     0.42845116,       0.00000000,       0.61557258,
     0.42021859,       0.08358668,       0.61557258,
     0.39583726,       0.16396116,       0.61557258,
     0.35624412,       0.23803471,       0.61557258,
     0.30296072,       0.30296072,       0.61557258,
     0.23803471,       0.35624412,       0.61557258,
     0.16396116,       0.39583726,       0.61557258,
     0.08358668,       0.42021859,       0.61557258,
     0.00000000,       0.42845116,       0.61557258,
    -0.08358668,       0.42021859,       0.61557258,
    -0.16396116,       0.39583726,       0.61557258,
    -0.23803471,       0.35624412,       0.61557258,
    -0.30296072,       0.30296072,       0.61557258,
    -0.35624412,       0.23803471,       0.61557258,
    -0.39583726,       0.16396116,       0.61557258,
    -0.42021859,       0.08358668,       0.61557258,
    -0.48852936,      -0.00000000,       0.56906859,
    -0.47914241,      -0.09530735,       0.56906859,
    -0.45134228,      -0.18695209,       0.56906859,
    -0.40619732,      -0.27141237,       0.56906859,
    -0.34544242,      -0.34544242,       0.56906859,
    -0.27141237,      -0.40619732,       0.56906859,
    -0.18695209,      -0.45134228,       0.56906859,
    -0.09530735,      -0.47914241,       0.56906859,
     0.00000000,      -0.48852936,       0.56906859,
     0.09530735,      -0.47914241,       0.56906859,
     0.18695209,      -0.45134228,       0.56906859,
     0.27141237,      -0.40619732,       0.56906859,
     0.34544242,      -0.34544242,       0.56906859,
     0.40619732,      -0.27141237,       0.56906859,
     0.45134228,      -0.18695209,       0.56906859,
     0.47914241,      -0.09530735,       0.56906859,
     0.48852936,       0.00000000,       0.56906859,
     0.47914241,       0.09530735,       0.56906859,
     0.45134228,       0.18695209,       0.56906859,
     0.40619732,       0.27141237,       0.56906859,
     0.34544242,       0.34544242,       0.56906859,
     0.27141237,       0.40619732,       0.56906859,
     0.18695209,       0.45134228,       0.56906859,
     0.09530735,       0.47914241,       0.56906859,
     0.00000000,       0.48852936,       0.56906859,
    -0.09530735,       0.47914241,       0.56906859,
    -0.18695209,       0.45134228,       0.56906859,
    -0.27141237,       0.40619732,       0.56906859,
    -0.34544242,       0.34544242,       0.56906859,
    -0.40619732,       0.27141237,       0.56906859,
    -0.45134228,       0.18695209,       0.56906859,
    -0.47914241,       0.09530735,       0.56906859,
    -0.54359459,      -0.00000000,       0.51672519,
    -0.53314957,      -0.10605004,       0.51672519,
    -0.50221592,      -0.20802464,       0.51672519,
    -0.45198238,      -0.30200497,       0.51672519,
    -0.38437942,      -0.38437942,       0.51672519,
    -0.30200497,      -0.45198238,       0.51672519,
    -0.20802464,      -0.50221592,       0.51672519,
    -0.10605004,      -0.53314957,       0.51672519,
     0.00000000,      -0.54359459,       0.51672519,
     0.10605004,      -0.53314957,       0.51672519,
     0.20802464,      -0.50221592,       0.51672519,
     0.30200497,      -0.45198238,       0.51672519,
     0.38437942,      -0.38437942,       0.51672519,
     0.45198238,      -0.30200497,       0.51672519,
     0.50221592,      -0.20802464,       0.51672519,
     0.53314957,      -0.10605004,       0.51672519,
     0.54359459,       0.00000000,       0.51672519,
     0.53314957,       0.10605004,       0.51672519,
     0.50221592,       0.20802464,       0.51672519,
     0.45198238,       0.30200497,       0.51672519,
     0.38437942,       0.38437942,       0.51672519,
     0.30200497,       0.45198238,       0.51672519,
     0.20802464,       0.50221592,       0.51672519,
     0.10605004,       0.53314957,       0.51672519,
     0.00000000,       0.54359459,       0.51672519,
    -0.10605004,       0.53314957,       0.51672519,
    -0.20802464,       0.50221592,       0.51672519,
    -0.30200497,       0.45198238,       0.51672519,
    -0.38437942,       0.38437942,       0.51672519,
    -0.45198238,       0.30200497,       0.51672519,
    -0.50221592,       0.20802464,       0.51672519,
    -0.53314957,       0.10605004,       0.51672519,
    -0.59308180,      -0.00000000,       0.45907949,
    -0.58168590,      -0.11570452,       0.45907949,
    -0.54793614,      -0.22696258,       0.45907949,
    -0.49312950,      -0.32949860,       0.45907949,
    -0.41937216,      -0.41937216,       0.45907949,
    -0.32949860,      -0.49312950,       0.45907949,
    -0.22696258,      -0.54793614,       0.45907949,
    -0.11570452,      -0.58168590,       0.45907949,
     0.00000000,      -0.59308180,       0.45907949,
     0.11570452,      -0.58168590,       0.45907949,
     0.22696258,      -0.54793614,       0.45907949,
     0.32949860,      -0.49312950,       0.45907949,
     0.41937216,      -0.41937216,       0.45907949,
     0.49312950,      -0.32949860,       0.45907949,
     0.54793614,      -0.22696258,       0.45907949,
     0.58168590,      -0.11570452,       0.45907949,
     0.59308180,       0.00000000,       0.45907949,
     0.58168590,       0.11570452,       0.45907949,
     0.54793614,       0.22696258,       0.45907949,
     0.49312950,       0.32949860,       0.45907949,
     0.41937216,       0.41937216,       0.45907949,
     0.32949860,       0.49312950,       0.45907949,
     0.22696258,       0.54793614,       0.45907949,
     0.11570452,       0.58168590,       0.45907949,
     0.00000000,       0.59308180,       0.45907949,
    -0.11570452,       0.58168590,       0.45907949,
    -0.22696258,       0.54793614,       0.45907949,
    -0.32949860,       0.49312950,       0.45907949,
    -0.41937216,       0.41937216,       0.45907949,
    -0.49312950,       0.32949860,       0.45907949,
    -0.54793614,       0.22696258,       0.45907949,
    -0.58168590,       0.11570452,       0.45907949,
    -0.63648319,      -0.00000000,       0.39672301,
    -0.62425335,      -0.12417171,       0.39672301,
    -0.58803379,      -0.24357157,       0.39672301,
    -0.52921643,      -0.35361112,       0.39672301,
    -0.45006158,      -0.45006158,       0.39672301,
    -0.35361112,      -0.52921643,       0.39672301,
    -0.24357157,      -0.58803379,       0.39672301,
    -0.12417171,      -0.62425335,       0.39672301,
     0.00000000,      -0.63648319,       0.39672301,
     0.12417171,      -0.62425335,       0.39672301,
     0.24357157,      -0.58803379,       0.39672301,
     0.35361112,      -0.52921643,       0.39672301,
     0.45006158,      -0.45006158,       0.39672301,
     0.52921643,      -0.35361112,       0.39672301,
     0.58803379,      -0.24357157,       0.39672301,
     0.62425335,      -0.12417171,       0.39672301,
     0.63648319,       0.00000000,       0.39672301,
     0.62425335,       0.12417171,       0.39672301,
     0.58803379,       0.24357157,       0.39672301,
     0.52921643,       0.35361112,       0.39672301,
     0.45006158,       0.45006158,       0.39672301,
     0.35361112,       0.52921643,       0.39672301,
     0.24357157,       0.58803379,       0.39672301,
     0.12417171,       0.62425335,       0.39672301,
     0.00000000,       0.63648319,       0.39672301,
    -0.12417171,       0.62425335,       0.39672301,
    -0.24357157,       0.58803379,       0.39672301,
    -0.35361112,       0.52921643,       0.39672301,
    -0.45006158,       0.45006158,       0.39672301,
    -0.52921643,       0.35361112,       0.39672301,
    -0.58803379,       0.24357157,       0.39672301,
    -0.62425335,       0.12417171,       0.39672301,
    -0.67335340,      -0.00000000,       0.33029561,
    -0.66041511,      -0.13136473,       0.33029561,
    -0.62209743,      -0.25768119,       0.33029561,
    -0.55987289,      -0.37409511,       0.33029561,
    -0.47613276,      -0.47613276,       0.33029561,
    -0.37409511,      -0.55987289,       0.33029561,
    -0.25768119,      -0.62209743,       0.33029561,
    -0.13136473,      -0.66041511,       0.33029561,
     0.00000000,      -0.67335340,       0.33029561,
     0.13136473,      -0.66041511,       0.33029561,
     0.25768119,      -0.62209743,       0.33029561,
     0.37409511,      -0.55987289,       0.33029561,
     0.47613276,      -0.47613276,       0.33029561,
     0.55987289,      -0.37409511,       0.33029561,
     0.62209743,      -0.25768119,       0.33029561,
     0.66041511,      -0.13136473,       0.33029561,
     0.67335340,       0.00000000,       0.33029561,
     0.66041511,       0.13136473,       0.33029561,
     0.62209743,       0.25768119,       0.33029561,
     0.55987289,       0.37409511,       0.33029561,
     0.47613276,       0.47613276,       0.33029561,
     0.37409511,       0.55987289,       0.33029561,
     0.25768119,       0.62209743,       0.33029561,
     0.13136473,       0.66041511,       0.33029561,
     0.00000000,       0.67335340,       0.33029561,
    -0.13136473,       0.66041511,       0.33029561,
    -0.25768119,       0.62209743,       0.33029561,
    -0.37409511,       0.55987289,       0.33029561,
    -0.47613276,       0.47613276,       0.33029561,
    -0.55987289,       0.37409511,       0.33029561,
    -0.62209743,       0.25768119,       0.33029561,
    -0.66041511,       0.13136473,       0.33029561,
    -0.70331410,      -0.00000000,       0.26047894,
    -0.68980012,      -0.13720977,       0.26047894,
    -0.64977750,      -0.26914665,       0.26047894,
    -0.58478430,      -0.39074038,       0.26047894,
    -0.49731817,      -0.49731817,       0.26047894,
    -0.39074038,      -0.58478430,       0.26047894,
    -0.26914665,      -0.64977750,       0.26047894,
    -0.13720977,      -0.68980012,       0.26047894,
     0.00000000,      -0.70331410,       0.26047894,
     0.13720977,      -0.68980012,       0.26047894,
     0.26914665,      -0.64977750,       0.26047894,
     0.39074038,      -0.58478430,       0.26047894,
     0.49731817,      -0.49731817,       0.26047894,
     0.58478430,      -0.39074038,       0.26047894,
     0.64977750,      -0.26914665,       0.26047894,
     0.68980012,      -0.13720977,       0.26047894,
     0.70331410,       0.00000000,       0.26047894,
     0.68980012,       0.13720977,       0.26047894,
     0.64977750,       0.26914665,       0.26047894,
     0.58478430,       0.39074038,       0.26047894,
     0.49731817,       0.49731817,       0.26047894,
     0.39074038,       0.58478430,       0.26047894,
     0.26914665,       0.64977750,       0.26047894,
     0.13720977,       0.68980012,       0.26047894,
     0.00000000,       0.70331410,       0.26047894,
    -0.13720977,       0.68980012,       0.26047894,
    -0.26914665,       0.64977750,       0.26047894,
    -0.39074038,       0.58478430,       0.26047894,
    -0.49731817,       0.49731817,       0.26047894,
    -0.58478430,       0.39074038,       0.26047894,
    -0.64977750,       0.26914665,       0.26047894,
    -0.68980012,       0.13720977,       0.26047894,
    -0.72605784,      -0.00000000,       0.18798940,
    -0.71210684,      -0.14164686,       0.18798940,
    -0.67078998,      -0.27785031,       0.18798940,
    -0.60369503,      -0.40337612,       0.18798940,
    -0.51340042,      -0.51340042,       0.18798940,
    -0.40337612,      -0.60369503,       0.18798940,
    -0.27785031,      -0.67078998,       0.18798940,
    -0.14164686,      -0.71210684,       0.18798940,
     0.00000000,      -0.72605784,       0.18798940,
     0.14164686,      -0.71210684,       0.18798940,
     0.27785031,      -0.67078998,       0.18798940,
     0.40337612,      -0.60369503,       0.18798940,
     0.51340042,      -0.51340042,       0.18798940,
     0.60369503,      -0.40337612,       0.18798940,
     0.67078998,      -0.27785031,       0.18798940,
     0.71210684,      -0.14164686,       0.18798940,
     0.72605784,       0.00000000,       0.18798940,
     0.71210684,       0.14164686,       0.18798940,
     0.67078998,       0.27785031,       0.18798940,
     0.60369503,       0.40337612,       0.18798940,
     0.51340042,       0.51340042,       0.18798940,
     0.40337612,       0.60369503,       0.18798940,
     0.27785031,       0.67078998,       0.18798940,
     0.14164686,       0.71210684,       0.18798940,
     0.00000000,       0.72605784,       0.18798940,
    -0.14164686,       0.71210684,       0.18798940,
    -0.27785031,       0.67078998,       0.18798940,
    -0.40337612,       0.60369503,       0.18798940,
    -0.51340042,       0.51340042,       0.18798940,
    -0.60369503,       0.40337612,       0.18798940,
    -0.67078998,       0.27785031,       0.18798940,
    -0.71210684,       0.14164686,       0.18798940,
    -0.74135124,      -0.00000000,       0.11357083,
    -0.72710639,      -0.14463045,       0.11357083,
    -0.68491924,      -0.28370284,       0.11357083,
    -0.61641103,      -0.41187268,       0.11357083,
    -0.52421449,      -0.52421449,       0.11357083,
    -0.41187268,      -0.61641103,       0.11357083,
    -0.28370284,      -0.68491924,       0.11357083,
    -0.14463045,      -0.72710639,       0.11357083,
     0.00000000,      -0.74135124,       0.11357083,
     0.14463045,      -0.72710639,       0.11357083,
     0.28370284,      -0.68491924,       0.11357083,
     0.41187268,      -0.61641103,       0.11357083,
     0.52421449,      -0.52421449,       0.11357083,
     0.61641103,      -0.41187268,       0.11357083,
     0.68491924,      -0.28370284,       0.11357083,
     0.72710639,      -0.14463045,       0.11357083,
     0.74135124,       0.00000000,       0.11357083,
     0.72710639,       0.14463045,       0.11357083,
     0.68491924,       0.28370284,       0.11357083,
     0.61641103,       0.41187268,       0.11357083,
     0.52421449,       0.52421449,       0.11357083,
     0.41187268,       0.61641103,       0.11357083,
     0.28370284,       0.68491924,       0.11357083,
     0.14463045,       0.72710639,       0.11357083,
     0.00000000,       0.74135124,       0.11357083,
    -0.14463045,       0.72710639,       0.11357083,
    -0.28370284,       0.68491924,       0.11357083,
    -0.41187268,       0.61641103,       0.11357083,
    -0.52421449,       0.52421449,       0.11357083,
    -0.61641103,       0.41187268,       0.11357083,
    -0.68491924,       0.28370284,       0.11357083,
    -0.72710639,       0.14463045,       0.11357083,
    -0.74903738,      -0.00000000,       0.03798688,
    -0.73464484,      -0.14612994,       0.03798688,
    -0.69202030,      -0.28664420,       0.03798688,
    -0.62280182,      -0.41614287,       0.03798688,
    -0.52964941,      -0.52964941,       0.03798688,
    -0.41614287,      -0.62280182,       0.03798688,
    -0.28664420,      -0.69202030,       0.03798688,
    -0.14612994,      -0.73464484,       0.03798688,
     0.00000000,      -0.74903738,       0.03798688,
     0.14612994,      -0.73464484,       0.03798688,
     0.28664420,      -0.69202030,       0.03798688,
     0.41614287,      -0.62280182,       0.03798688,
     0.52964941,      -0.52964941,       0.03798688,
     0.62280182,      -0.41614287,       0.03798688,
     0.69202030,      -0.28664420,       0.03798688,
     0.73464484,      -0.14612994,       0.03798688,
     0.74903738,       0.00000000,       0.03798688,
     0.73464484,       0.14612994,       0.03798688,
     0.69202030,       0.28664420,       0.03798688,
     0.62280182,       0.41614287,       0.03798688,
     0.52964941,       0.52964941,       0.03798688,
     0.41614287,       0.62280182,       0.03798688,
     0.28664420,       0.69202030,       0.03798688,
     0.14612994,       0.73464484,       0.03798688,
     0.00000000,       0.74903738,       0.03798688,
    -0.14612994,       0.73464484,       0.03798688,
    -0.28664420,       0.69202030,       0.03798688,
    -0.41614287,       0.62280182,       0.03798688,
    -0.52964941,       0.52964941,       0.03798688,
    -0.62280182,       0.41614287,       0.03798688,
    -0.69202030,       0.28664420,       0.03798688,
    -0.73464484,       0.14612994,       0.03798688,
    -0.74903738,      -0.00000000,      -0.03798688,
    -0.73464484,      -0.14612994,      -0.03798688,
    -0.69202030,      -0.28664420,      -0.03798688,
    -0.62280182,      -0.41614287,      -0.03798688,
    -0.52964941,      -0.52964941,      -0.03798688,
    -0.41614287,      -0.62280182,      -0.03798688,
    -0.28664420,      -0.69202030,      -0.03798688,
    -0.14612994,      -0.73464484,      -0.03798688,
     0.00000000,      -0.74903738,      -0.03798688,
     0.14612994,      -0.73464484,      -0.03798688,
     0.28664420,      -0.69202030,      -0.03798688,
     0.41614287,      -0.62280182,      -0.03798688,
     0.52964941,      -0.52964941,      -0.03798688,
     0.62280182,      -0.41614287,      -0.03798688,
     0.69202030,      -0.28664420,      -0.03798688,
     0.73464484,      -0.14612994,      -0.03798688,
     0.74903738,       0.00000000,      -0.03798688,
     0.73464484,       0.14612994,      -0.03798688,
     0.69202030,       0.28664420,      -0.03798688,
     0.62280182,       0.41614287,      -0.03798688,
     0.52964941,       0.52964941,      -0.03798688,
     0.41614287,       0.62280182,      -0.03798688,
     0.28664420,       0.69202030,      -0.03798688,
     0.14612994,       0.73464484,      -0.03798688,
     0.00000000,       0.74903738,      -0.03798688,
    -0.14612994,       0.73464484,      -0.03798688,
    -0.28664420,       0.69202030,      -0.03798688,
    -0.41614287,       0.62280182,      -0.03798688,
    -0.52964941,       0.52964941,      -0.03798688,
    -0.62280182,       0.41614287,      -0.03798688,
    -0.69202030,       0.28664420,      -0.03798688,
    -0.73464484,       0.14612994,      -0.03798688,
    -0.74135124,      -0.00000000,      -0.11357083,
    -0.72710639,      -0.14463045,      -0.11357083,
    -0.68491924,      -0.28370284,      -0.11357083,
    -0.61641103,      -0.41187268,      -0.11357083,
    -0.52421449,      -0.52421449,      -0.11357083,
    -0.41187268,      -0.61641103,      -0.11357083,
    -0.28370284,      -0.68491924,      -0.11357083,
    -0.14463045,      -0.72710639,      -0.11357083,
     0.00000000,      -0.74135124,      -0.11357083,
     0.14463045,      -0.72710639,      -0.11357083,
     0.28370284,      -0.68491924,      -0.11357083,
     0.41187268,      -0.61641103,      -0.11357083,
     0.52421449,      -0.52421449,      -0.11357083,
     0.61641103,      -0.41187268,      -0.11357083,
     0.68491924,      -0.28370284,      -0.11357083,
     0.72710639,      -0.14463045,      -0.11357083,
     0.74135124,       0.00000000,      -0.11357083,
     0.72710639,       0.14463045,      -0.11357083,
     0.68491924,       0.28370284,      -0.11357083,
     0.61641103,       0.41187268,      -0.11357083,
     0.52421449,       0.52421449,      -0.11357083,
     0.41187268,       0.61641103,      -0.11357083,
     0.28370284,       0.68491924,      -0.11357083,
     0.14463045,       0.72710639,      -0.11357083,
     0.00000000,       0.74135124,      -0.11357083,
    -0.14463045,       0.72710639,      -0.11357083,
    -0.28370284,       0.68491924,      -0.11357083,
    -0.41187268,       0.61641103,      -0.11357083,
    -0.52421449,       0.52421449,      -0.11357083,
    -0.61641103,       0.41187268,      -0.11357083,
    -0.68491924,       0.28370284,      -0.11357083,
    -0.72710639,       0.14463045,      -0.11357083,
    -0.72605784,      -0.00000000,      -0.18798940,