&HEAD CHID='HoC_Ideal', TITLE='Test' /
&TIME T_END=4.0 /

&MESH IJK=10,10,10, XB=0.0,1.0,0.0,1.0,0.0,1.0 /

&REAC FUEL       = 'METHANE'
      SOOT_YIELD = 0.10
      CO_YIELD   = 0.10
      HEAT_OF_COMBUSTION = 50000
      IDEAL=.TRUE./

&VENT XB=0.4,0.6,0.4,0.6,0,0,SURF_ID='FIRE'/
&SURF ID='FIRE',COLOR='RED',HRRPUA=1000.,TAU_Q=0.1/

&TAIL /
