&OBST XB=0.0,2.0, 0.0,0.4, 0.0,0.1 COPIES=5 DXYZ=0.0,0.0, 0.3, 0.3, 0.1,0.1 /