&HEAD CHID='ht3d_sphere_51'
      TITLE='Heat transfer in solid sphere'
      /
&TIME T_BEGIN=0.0
      T_END=180.0
      /

&MESH ID='Domain'
      IJK=51,51,51
      XB=-0.125,0.125,-0.125,0.125,-0.125,0.125
      /

&MISC TMPA=20, FREEZE_VELOCITY=T, STRATIFICATION=F, NOISE=F 
      /
&DUMP RENDER_FILE='ht3d_sphere_50.ge1'
      STATUS_FILES=.TRUE.
      DT_DEVC=10
      /

&RADI RADIATION=.FALSE./

&MATL ID            = 'orange'
      SPECIFIC_HEAT = 1
      CONDUCTIVITY  = 1
      DENSITY       = 1000/

&SURF ID='SPHERE'
      RGB=5,32,204
      TMP_FRONT=20
      /

&VENT MB='XMIN',SURF_ID='OPEN' /   
&VENT MB='XMAX',SURF_ID='OPEN' / 
&VENT MB='YMIN',SURF_ID='OPEN' / 
&VENT MB='YMAX',SURF_ID='OPEN' / 
&VENT MB='ZMIN',SURF_ID='OPEN' / 
&VENT MB='ZMAX',SURF_ID='OPEN' / 

&SLCF PBX=0, QUANTITY='TEMPERATURE', CELL_CENTERED=.TRUE./
&SLCF PBX=0, QUANTITY='HRRPUV', CELL_CENTERED=.TRUE./

&SLCF PBY=0, QUANTITY='TEMPERATURE', CELL_CENTERED=.TRUE./
&SLCF PBY=0, QUANTITY='HRRPUV', CELL_CENTERED=.TRUE./

&SLCF PBZ=0, QUANTITY='TEMPERATURE', CELL_CENTERED=.TRUE./
&SLCF PBZ=0, QUANTITY='HRRPUV', CELL_CENTERED=.TRUE./

&DEVC XB=0,0.10295,0,0,0,0, QUANTITY='TEMPERATURE', POINTS=22, TIME_HISTORY=.TRUE., ID='TS', TIME_AVERAGED=F/

&OBST ID='SPHERE_0'
      XB=-0.043,0.043,-0.029,-0.022,-0.089,-0.084
      SURF_ID='SPHERE'
      HT3D=.TRUE., MATL_ID='orange',  INTERNAL_HEAT_SOURCE=200.
      /
&OBST ID='SPHERE_1'
      XB=-0.024,0.024,0.019,0.024,0.092,0.097
      SURF_ID='SPHERE'
      HT3D=.TRUE., MATL_ID='orange',  INTERNAL_HEAT_SOURCE=200.
      /
&OBST ID='SPHERE_2'
      XB=-0.046,0.046,-0.046,-0.038,-0.081,-0.076
      SURF_ID='SPHERE'
      HT3D=.TRUE., MATL_ID='orange',  INTERNAL_HEAT_SOURCE=200.
      /
&OBST ID='SPHERE_3'
      XB=-0.091,0.091,-0.035,-0.025,0.025,0.029
      SURF_ID='SPHERE'
      HT3D=.TRUE., MATL_ID='orange',  INTERNAL_HEAT_SOURCE=200.
      /
&OBST ID='SPHERE_4'
      XB=-0.081,0.081,0.049,0.054,-0.032,-0.027
      SURF_ID='SPHERE'
      HT3D=.TRUE., MATL_ID='orange',  INTERNAL_HEAT_SOURCE=200.
      /
&OBST ID='SPHERE_5'
      XB=-0.081,0.081,-0.016,0.016,0.057,0.062
      SURF_ID='SPHERE'
      HT3D=.TRUE., MATL_ID='orange',  INTERNAL_HEAT_SOURCE=200.
      /
&OBST ID='SPHERE_6'
      XB=-0.089,0.089,0.025,0.037,0.033,0.037
      SURF_ID='SPHERE'
      HT3D=.TRUE., MATL_ID='orange',  INTERNAL_HEAT_SOURCE=200.
      /
&OBST ID='SPHERE_7'
      XB=-0.067,0.067,-0.021,-0.006,-0.075,-0.071
      SURF_ID='SPHERE'
      HT3D=.TRUE., MATL_ID='orange',  INTERNAL_HEAT_SOURCE=200.
      /
&OBST ID='SPHERE_8'
      XB=-0.032,0.032,-0.081,-0.076,0.052,0.056
      SURF_ID='SPHERE'
      HT3D=.TRUE., MATL_ID='orange',  INTERNAL_HEAT_SOURCE=200.
      /
&OBST ID='SPHERE_9'
      XB=-0.097,0.097,0.000,0.024,-0.024,-0.019
      SURF_ID='SPHERE'
      HT3D=.TRUE., MATL_ID='orange',  INTERNAL_HEAT_SOURCE=200.
      /
&OBST ID='SPHERE_10'
      XB=-0.086,0.086,0.035,0.043,0.030,0.035
      SURF_ID='SPHERE'
      HT3D=.TRUE., MATL_ID='orange',  INTERNAL_HEAT_SOURCE=200.
      /
&OBST ID='SPHERE_11'
      XB=-0.094,0.094,-0.021,0.021,0.030,0.035
      SURF_ID='SPHERE'
      HT3D=.TRUE., MATL_ID='orange',  INTERNAL_HEAT_SOURCE=200.
      /
&OBST ID='SPHERE_12'
      XB=-0.067,0.067,-0.029,-0.019,0.068,0.073
      SURF_ID='SPHERE'
      HT3D=.TRUE., MATL_ID='orange',  INTERNAL_HEAT_SOURCE=200.
      /
&OBST ID='SPHERE_13'
      XB=-0.081,0.081,0.019,0.032,0.052,0.056
      SURF_ID='SPHERE'
      HT3D=.TRUE., MATL_ID='orange',  INTERNAL_HEAT_SOURCE=200.
      /
&OBST ID='SPHERE_14'
      XB=-0.091,0.091,0.027,0.037,-0.027,-0.022
      SURF_ID='SPHERE'
      HT3D=.TRUE., MATL_ID='orange',  INTERNAL_HEAT_SOURCE=200.
      /
&OBST ID='SPHERE_15'
      XB=-0.032,0.032,-0.010,0.010,0.092,0.097
      SURF_ID='SPHERE'
      HT3D=.TRUE., MATL_ID='orange',  INTERNAL_HEAT_SOURCE=200.
      /
&OBST ID='SPHERE_16'
      XB=-0.086,0.086,0.038,0.046,0.027,0.032
      SURF_ID='SPHERE'
      HT3D=.TRUE., MATL_ID='orange',  INTERNAL_HEAT_SOURCE=200.
      /
&OBST ID='SPHERE_17'
      XB=-0.032,0.032,-0.010,0.010,-0.097,-0.092
      SURF_ID='SPHERE'
      HT3D=.TRUE., MATL_ID='orange',  INTERNAL_HEAT_SOURCE=200.
      /
&OBST ID='SPHERE_18'
      XB=-0.100,0.100,0.000,0.024,-0.002,0.002
      SURF_ID='SPHERE'
      HT3D=.TRUE., MATL_ID='orange',  INTERNAL_HEAT_SOURCE=200.
      /
&OBST ID='SPHERE_19'
      XB=-0.048,0.048,-0.019,-0.008,0.084,0.089
      SURF_ID='SPHERE'
      HT3D=.TRUE., MATL_ID='orange',  INTERNAL_HEAT_SOURCE=200.
      /
&OBST ID='SPHERE_20'
      XB=-0.051,0.051,0.065,0.070,-0.056,-0.052
      SURF_ID='SPHERE'
      HT3D=.TRUE., MATL_ID='orange',  INTERNAL_HEAT_SOURCE=200.
      /
&OBST ID='SPHERE_21'
      XB=-0.064,0.064,-0.029,-0.019,0.071,0.075
      SURF_ID='SPHERE'
      HT3D=.TRUE., MATL_ID='orange',  INTERNAL_HEAT_SOURCE=200.
      /
&OBST ID='SPHERE_22'
      XB=-0.091,0.091,0.006,0.024,0.035,0.040
      SURF_ID='SPHERE'
      HT3D=.TRUE., MATL_ID='orange',  INTERNAL_HEAT_SOURCE=200.
      /
&OBST ID='SPHERE_23'
      XB=-0.048,0.048,-0.029,-0.022,-0.086,-0.081
      SURF_ID='SPHERE'
      HT3D=.TRUE., MATL_ID='orange',  INTERNAL_HEAT_SOURCE=200.
      /
&OBST ID='SPHERE_24'
      XB=-0.062,0.062,-0.016,0.016,-0.081,-0.076
      SURF_ID='SPHERE'
      HT3D=.TRUE., MATL_ID='orange',  INTERNAL_HEAT_SOURCE=200.
      /
&OBST ID='SPHERE_25'
      XB=-0.075,0.075,0.035,0.043,0.052,0.056
      SURF_ID='SPHERE'
      HT3D=.TRUE., MATL_ID='orange',  INTERNAL_HEAT_SOURCE=200.
      /
&OBST ID='SPHERE_26'
      XB=-0.083,0.083,-0.013,0.013,-0.059,-0.054
      SURF_ID='SPHERE'
      HT3D=.TRUE., MATL_ID='orange',  INTERNAL_HEAT_SOURCE=200.
      /
&OBST ID='SPHERE_27'
      XB=-0.097,0.097,-0.027,-0.011,-0.019,-0.014
      SURF_ID='SPHERE'
      HT3D=.TRUE., MATL_ID='orange',  INTERNAL_HEAT_SOURCE=200.
      /
&OBST ID='SPHERE_28'
      XB=-0.094,0.094,-0.040,-0.027,-0.008,-0.003
      SURF_ID='SPHERE'
      HT3D=.TRUE., MATL_ID='orange',  INTERNAL_HEAT_SOURCE=200.
      /
&OBST ID='SPHERE_29'
      XB=-0.091,0.091,-0.040,-0.033,-0.021,-0.017
      SURF_ID='SPHERE'
      HT3D=.TRUE., MATL_ID='orange',  INTERNAL_HEAT_SOURCE=200.
      /
&OBST ID='SPHERE_30'
      XB=-0.097,0.097,0.022,0.032,-0.002,0.002
      SURF_ID='SPHERE'
      HT3D=.TRUE., MATL_ID='orange',  INTERNAL_HEAT_SOURCE=200.
      /
&OBST ID='SPHERE_31'
      XB=-0.083,0.083,-0.043,-0.035,0.038,0.043
      SURF_ID='SPHERE'
      HT3D=.TRUE., MATL_ID='orange',  INTERNAL_HEAT_SOURCE=200.
      /
&OBST ID='SPHERE_32'
      XB=-0.070,0.070,0.041,0.048,-0.059,-0.054
      SURF_ID='SPHERE'
      HT3D=.TRUE., MATL_ID='orange',  INTERNAL_HEAT_SOURCE=200.
      /
&OBST ID='SPHERE_33'
      XB=-0.019,0.019,-0.086,-0.081,0.049,0.054
      SURF_ID='SPHERE'
      HT3D=.TRUE., MATL_ID='orange',  INTERNAL_HEAT_SOURCE=200.
      /
&OBST ID='SPHERE_34'
      XB=-0.070,0.070,0.049,0.056,-0.051,-0.046
      SURF_ID='SPHERE'
      HT3D=.TRUE., MATL_ID='orange',  INTERNAL_HEAT_SOURCE=200.
      /
&OBST ID='SPHERE_35'
      XB=-0.100,0.100,-0.024,-0.000,-0.002,0.002
      SURF_ID='SPHERE'
      HT3D=.TRUE., MATL_ID='orange',  INTERNAL_HEAT_SOURCE=200.
      /
&OBST ID='SPHERE_36'
      XB=-0.078,0.078,-0.027,-0.014,-0.062,-0.057
      SURF_ID='SPHERE'
      HT3D=.TRUE., MATL_ID='orange',  INTERNAL_HEAT_SOURCE=200.
      /
&OBST ID='SPHERE_37'
      XB=-0.097,0.097,0.011,0.027,-0.019,-0.014
      SURF_ID='SPHERE'
      HT3D=.TRUE., MATL_ID='orange',  INTERNAL_HEAT_SOURCE=200.
      /
&OBST ID='SPHERE_38'
      XB=-0.073,0.073,0.017,0.029,0.062,0.067
      SURF_ID='SPHERE'
      HT3D=.TRUE., MATL_ID='orange',  INTERNAL_HEAT_SOURCE=200.
      /
&OBST ID='SPHERE_39'
      XB=-0.097,0.097,0.014,0.027,-0.016,-0.011
      SURF_ID='SPHERE'
      HT3D=.TRUE., MATL_ID='orange',  INTERNAL_HEAT_SOURCE=200.
      /
&OBST ID='SPHERE_40'
      XB=-0.059,0.059,0.052,0.056,0.057,0.062
      SURF_ID='SPHERE'
      HT3D=.TRUE., MATL_ID='orange',  INTERNAL_HEAT_SOURCE=200.
      /
&OBST ID='SPHERE_41'
      XB=-0.029,0.029,-0.089,-0.084,-0.043,-0.038
      SURF_ID='SPHERE'
      HT3D=.TRUE., MATL_ID='orange',  INTERNAL_HEAT_SOURCE=200.
      /
&OBST ID='SPHERE_42'
      XB=-0.062,0.062,-0.051,-0.046,0.060,0.064
      SURF_ID='SPHERE'
      HT3D=.TRUE., MATL_ID='orange',  INTERNAL_HEAT_SOURCE=200.
      /
&OBST ID='SPHERE_43'
      XB=-0.094,0.094,-0.029,-0.019,0.022,0.027
      SURF_ID='SPHERE'
      HT3D=.TRUE., MATL_ID='orange',  INTERNAL_HEAT_SOURCE=200.
      /
&OBST ID='SPHERE_44'
      XB=-0.086,0.086,-0.027,-0.017,0.044,0.048
      SURF_ID='SPHERE'
      HT3D=.TRUE., MATL_ID='orange',  INTERNAL_HEAT_SOURCE=200.
      /
&OBST ID='SPHERE_45'
      XB=-0.081,0.081,0.025,0.035,-0.054,-0.049
      SURF_ID='SPHERE'
      HT3D=.TRUE., MATL_ID='orange',  INTERNAL_HEAT_SOURCE=200.
      /
&OBST ID='SPHERE_46'
      XB=-0.094,0.094,-0.024,-0.003,-0.032,-0.027
      SURF_ID='SPHERE'
      HT3D=.TRUE., MATL_ID='orange',  INTERNAL_HEAT_SOURCE=200.
      /
&OBST ID='SPHERE_47'
      XB=-0.027,0.027,0.057,0.062,0.073,0.078
      SURF_ID='SPHERE'
      HT3D=.TRUE., MATL_ID='orange',  INTERNAL_HEAT_SOURCE=200.
      /
&OBST ID='SPHERE_48'
      XB=-0.083,0.083,0.030,0.040,-0.046,-0.041
      SURF_ID='SPHERE'
      HT3D=.TRUE., MATL_ID='orange',  INTERNAL_HEAT_SOURCE=200.
      /
&OBST ID='SPHERE_49'
      XB=-0.056,0.056,0.041,0.046,0.068,0.073
      SURF_ID='SPHERE'
      HT3D=.TRUE., MATL_ID='orange',  INTERNAL_HEAT_SOURCE=200.
      /
&OBST ID='SPHERE_50'
      XB=-0.062,0.062,0.065,0.070,-0.043,-0.038
      SURF_ID='SPHERE'
      HT3D=.TRUE., MATL_ID='orange',  INTERNAL_HEAT_SOURCE=200.
      /
&OBST ID='SPHERE_51'
      XB=-0.056,0.056,0.068,0.073,0.041,0.046
      SURF_ID='SPHERE'
      HT3D=.TRUE., MATL_ID='orange',  INTERNAL_HEAT_SOURCE=200.
      /
&OBST ID='SPHERE_52'
      XB=-0.100,0.100,-0.016,0.016,0.011,0.016
      SURF_ID='SPHERE'
      HT3D=.TRUE., MATL_ID='orange',  INTERNAL_HEAT_SOURCE=200.
      /
&OBST ID='SPHERE_53'
      XB=-0.013,0.013,-0.097,-0.092,-0.029,-0.025
      SURF_ID='SPHERE'
      HT3D=.TRUE., MATL_ID='orange',  INTERNAL_HEAT_SOURCE=200.
      /
&OBST ID='SPHERE_54'
      XB=-0.086,0.086,-0.005,0.005,-0.056,-0.052
      SURF_ID='SPHERE'
      HT3D=.TRUE., MATL_ID='orange',  INTERNAL_HEAT_SOURCE=200.
      /
&OBST ID='SPHERE_55'
      XB=-0.089,0.089,0.030,0.040,0.027,0.032
      SURF_ID='SPHERE'
      HT3D=.TRUE., MATL_ID='orange',  INTERNAL_HEAT_SOURCE=200.
      /
&OBST ID='SPHERE_56'
      XB=-0.097,0.097,-0.021,0.021,-0.027,-0.022
      SURF_ID='SPHERE'
      HT3D=.TRUE., MATL_ID='orange',  INTERNAL_HEAT_SOURCE=200.
      /
&OBST ID='SPHERE_57'
      XB=-0.089,0.089,-0.032,-0.022,-0.040,-0.035
      SURF_ID='SPHERE'
      HT3D=.TRUE., MATL_ID='orange',  INTERNAL_HEAT_SOURCE=200.
      /
&OBST ID='SPHERE_58'
      XB=-0.024,0.024,0.081,0.086,0.046,0.051
      SURF_ID='SPHERE'
      HT3D=.TRUE., MATL_ID='orange',  INTERNAL_HEAT_SOURCE=200.
      /
&OBST ID='SPHERE_59'
      XB=-0.040,0.040,-0.048,-0.044,0.076,0.081
      SURF_ID='SPHERE'
      HT3D=.TRUE., MATL_ID='orange',  INTERNAL_HEAT_SOURCE=200.
      /
&OBST ID='SPHERE_60'
      XB=-0.073,0.073,0.049,0.054,-0.048,-0.044
      SURF_ID='SPHERE'
      HT3D=.TRUE., MATL_ID='orange',  INTERNAL_HEAT_SOURCE=200.
      /
&OBST ID='SPHERE_61'
      XB=-0.019,0.019,-0.016,-0.011,-0.100,-0.095
      SURF_ID='SPHERE'
      HT3D=.TRUE., MATL_ID='orange',  INTERNAL_HEAT_SOURCE=200.
      /
&OBST ID='SPHERE_62'
      XB=-0.005,0.005,0.084,0.089,0.046,0.051
      SURF_ID='SPHERE'
      HT3D=.TRUE., MATL_ID='orange',  INTERNAL_HEAT_SOURCE=200.
      /
&OBST ID='SPHERE_63'
      XB=-0.097,0.097,0.019,0.032,-0.005,-0.000
      SURF_ID='SPHERE'
      HT3D=.TRUE., MATL_ID='orange',  INTERNAL_HEAT_SOURCE=200.
      /
&OBST ID='SPHERE_64'
      XB=-0.027,0.027,-0.078,-0.073,-0.062,-0.057
      SURF_ID='SPHERE'
      HT3D=.TRUE., MATL_ID='orange',  INTERNAL_HEAT_SOURCE=200.
      /
&OBST ID='SPHERE_65'
      XB=-0.086,0.086,0.003,0.024,0.046,0.051
      SURF_ID='SPHERE'
      HT3D=.TRUE., MATL_ID='orange',  INTERNAL_HEAT_SOURCE=200.
      /
&OBST ID='SPHERE_66'
      XB=-0.078,0.078,0.049,0.056,0.033,0.037
      SURF_ID='SPHERE'
      HT3D=.TRUE., MATL_ID='orange',  INTERNAL_HEAT_SOURCE=200.
      /
&OBST ID='SPHERE_67'
      XB=-0.075,0.075,-0.035,-0.025,-0.062,-0.057
      SURF_ID='SPHERE'
      HT3D=.TRUE., MATL_ID='orange',  INTERNAL_HEAT_SOURCE=200.
      /
&OBST ID='SPHERE_68'
      XB=-0.100,0.100,-0.013,0.013,-0.019,-0.014
      SURF_ID='SPHERE'
      HT3D=.TRUE., MATL_ID='orange',  INTERNAL_HEAT_SOURCE=200.
      /
&OBST ID='SPHERE_69'
      XB=-0.046,0.046,0.052,0.056,-0.073,-0.068
      SURF_ID='SPHERE'
      HT3D=.TRUE., MATL_ID='orange',  INTERNAL_HEAT_SOURCE=200.
      /
&OBST ID='SPHERE_70'
      XB=-0.075,0.075,-0.054,-0.046,0.041,0.046
      SURF_ID='SPHERE'
      HT3D=.TRUE., MATL_ID='orange',  INTERNAL_HEAT_SOURCE=200.
      /
&OBST ID='SPHERE_71'
      XB=-0.094,0.094,-0.037,-0.025,-0.016,-0.011
      SURF_ID='SPHERE'
      HT3D=.TRUE., MATL_ID='orange',  INTERNAL_HEAT_SOURCE=200.
      /
&OBST ID='SPHERE_72'
      XB=-0.094,0.094,0.022,0.032,-0.024,-0.019
      SURF_ID='SPHERE'
      HT3D=.TRUE., MATL_ID='orange',  INTERNAL_HEAT_SOURCE=200.
      /
&OBST ID='SPHERE_73'
      XB=-0.078,0.078,0.033,0.040,-0.054,-0.049
      SURF_ID='SPHERE'
      HT3D=.TRUE., MATL_ID='orange',  INTERNAL_HEAT_SOURCE=200.
      /
&OBST ID='SPHERE_74'
      XB=-0.070,0.070,-0.051,-0.046,-0.056,-0.052
      SURF_ID='SPHERE'
      HT3D=.TRUE., MATL_ID='orange',  INTERNAL_HEAT_SOURCE=200.
      /
&OBST ID='SPHERE_75'
      XB=-0.035,0.035,0.068,0.073,0.060,0.064
      SURF_ID='SPHERE'
      HT3D=.TRUE., MATL_ID='orange',  INTERNAL_HEAT_SOURCE=200.
      /
&OBST ID='SPHERE_76'
      XB=-0.089,0.089,-0.040,-0.030,0.027,0.032
      SURF_ID='SPHERE'
      HT3D=.TRUE., MATL_ID='orange',  INTERNAL_HEAT_SOURCE=200.
      /
&OBST ID='SPHERE_77'
      XB=-0.100,0.100,-0.019,0.019,-0.013,-0.008
      SURF_ID='SPHERE'
      HT3D=.TRUE., MATL_ID='orange',  INTERNAL_HEAT_SOURCE=200.
      /
&OBST ID='SPHERE_78'
      XB=-0.019,0.019,0.060,0.064,0.073,0.078
      SURF_ID='SPHERE'
      HT3D=.TRUE., MATL_ID='orange',  INTERNAL_HEAT_SOURCE=200.
      /
&OBST ID='SPHERE_79'
      XB=-0.054,0.054,0.035,0.040,-0.078,-0.073
      SURF_ID='SPHERE'
      HT3D=.TRUE., MATL_ID='orange',  INTERNAL_HEAT_SOURCE=200.
      /
&OBST ID='SPHERE_80'
      XB=-0.100,0.100,-0.010,0.010,0.017,0.021
      SURF_ID='SPHERE'
      HT3D=.TRUE., MATL_ID='orange',  INTERNAL_HEAT_SOURCE=200.
      /
&OBST ID='SPHERE_81'
      XB=-0.091,0.091,-0.021,0.021,-0.043,-0.038
      SURF_ID='SPHERE'
      HT3D=.TRUE., MATL_ID='orange',  INTERNAL_HEAT_SOURCE=200.
      /
&OBST ID='SPHERE_82'
      XB=-0.075,0.075,-0.048,-0.041,-0.051,-0.046
      SURF_ID='SPHERE'
      HT3D=.TRUE., MATL_ID='orange',  INTERNAL_HEAT_SOURCE=200.
      /
&OBST ID='SPHERE_83'
      XB=-0.051,0.051,0.038,0.043,0.073,0.078
      SURF_ID='SPHERE'
      HT3D=.TRUE., MATL_ID='orange',  INTERNAL_HEAT_SOURCE=200.
      /
&OBST ID='SPHERE_84'
      XB=-0.086,0.086,0.003,0.024,-0.051,-0.046
      SURF_ID='SPHERE'
      HT3D=.TRUE., MATL_ID='orange',  INTERNAL_HEAT_SOURCE=200.
      /
&OBST ID='SPHERE_85'
      XB=-0.008,0.008,0.087,0.091,-0.046,-0.041
      SURF_ID='SPHERE'
      HT3D=.TRUE., MATL_ID='orange',  INTERNAL_HEAT_SOURCE=200.
      /
&OBST ID='SPHERE_86'
      XB=-0.021,0.021,0.068,0.073,-0.070,-0.065
      SURF_ID='SPHERE'
      HT3D=.TRUE., MATL_ID='orange',  INTERNAL_HEAT_SOURCE=200.
      /
&OBST ID='SPHERE_87'
      XB=-0.078,0.078,-0.032,-0.022,-0.059,-0.054
      SURF_ID='SPHERE'
      HT3D=.TRUE., MATL_ID='orange',  INTERNAL_HEAT_SOURCE=200.
      /
&OBST ID='SPHERE_88'
      XB=-0.043,0.043,-0.064,-0.060,-0.067,-0.062
      SURF_ID='SPHERE'
      HT3D=.TRUE., MATL_ID='orange',  INTERNAL_HEAT_SOURCE=200.
      /
&OBST ID='SPHERE_89'
      XB=-0.024,0.024,-0.040,-0.035,0.087,0.091
      SURF_ID='SPHERE'
      HT3D=.TRUE., MATL_ID='orange',  INTERNAL_HEAT_SOURCE=200.
      /
&OBST ID='SPHERE_90'
      XB=-0.046,0.046,-0.010,0.010,0.087,0.091
      SURF_ID='SPHERE'
      HT3D=.TRUE., MATL_ID='orange',  INTERNAL_HEAT_SOURCE=200.
      /
&OBST ID='SPHERE_91'
      XB=-0.035,0.035,0.041,0.046,-0.086,-0.081
      SURF_ID='SPHERE'
      HT3D=.TRUE., MATL_ID='orange',  INTERNAL_HEAT_SOURCE=200.
      /
&OBST ID='SPHERE_92'
      XB=-0.048,0.048,0.062,0.067,0.057,0.062
      SURF_ID='SPHERE'
      HT3D=.TRUE., MATL_ID='orange',  INTERNAL_HEAT_SOURCE=200.
      /
&OBST ID='SPHERE_93'
      XB=-0.086,0.086,-0.037,-0.027,-0.043,-0.038
      SURF_ID='SPHERE'
      HT3D=.TRUE., MATL_ID='orange',  INTERNAL_HEAT_SOURCE=200.
      /
&OBST ID='SPHERE_94'
      XB=-0.078,0.078,-0.051,-0.046,-0.043,-0.038
      SURF_ID='SPHERE'
      HT3D=.TRUE., MATL_ID='orange',  INTERNAL_HEAT_SOURCE=200.
      /
&OBST ID='SPHERE_95'
      XB=-0.043,0.043,-0.078,-0.073,0.046,0.051
      SURF_ID='SPHERE'
      HT3D=.TRUE., MATL_ID='orange',  INTERNAL_HEAT_SOURCE=200.
      /
&OBST ID='SPHERE_96'
      XB=-0.064,0.064,-0.043,-0.038,0.062,0.067
      SURF_ID='SPHERE'
      HT3D=.TRUE., MATL_ID='orange',  INTERNAL_HEAT_SOURCE=200.
      /
&OBST ID='SPHERE_97'
      XB=-0.070,0.070,-0.056,-0.052,-0.048,-0.044
      SURF_ID='SPHERE'
      HT3D=.TRUE., MATL_ID='orange',  INTERNAL_HEAT_SOURCE=200.
      /
&OBST ID='SPHERE_98'
      XB=-0.086,0.086,-0.024,-0.003,0.046,0.051
      SURF_ID='SPHERE'
      HT3D=.TRUE., MATL_ID='orange',  INTERNAL_HEAT_SOURCE=200.
      /
&OBST ID='SPHERE_99'
      XB=-0.035,0.035,0.025,0.032,-0.091,-0.087
      SURF_ID='SPHERE'
      HT3D=.TRUE., MATL_ID='orange',  INTERNAL_HEAT_SOURCE=200.
      /
&OBST ID='SPHERE_100'
      XB=-0.024,0.024,0.084,0.089,-0.046,-0.041
      SURF_ID='SPHERE'
      HT3D=.TRUE., MATL_ID='orange',  INTERNAL_HEAT_SOURCE=200.
      /
&OBST ID='SPHERE_101'
      XB=-0.040,0.040,-0.064,-0.060,-0.070,-0.065
      SURF_ID='SPHERE'
      HT3D=.TRUE., MATL_ID='orange',  INTERNAL_HEAT_SOURCE=200.
      /
&OBST ID='SPHERE_102'
      XB=-0.083,0.083,-0.021,-0.003,0.052,0.056
      SURF_ID='SPHERE'
      HT3D=.TRUE., MATL_ID='orange',  INTERNAL_HEAT_SOURCE=200.
      /
&OBST ID='SPHERE_103'
      XB=-0.075,0.075,-0.056,-0.052,0.035,0.040
      SURF_ID='SPHERE'
      HT3D=.TRUE., MATL_ID='orange',  INTERNAL_HEAT_SOURCE=200.
      /
&OBST ID='SPHERE_104'
      XB=-0.081,0.081,-0.035,-0.025,-0.054,-0.049
      SURF_ID='SPHERE'
      HT3D=.TRUE., MATL_ID='orange',  INTERNAL_HEAT_SOURCE=200.
      /
&OBST ID='SPHERE_105'
      XB=-0.067,0.067,-0.040,-0.033,-0.067,-0.062
      SURF_ID='SPHERE'
      HT3D=.TRUE., MATL_ID='orange',  INTERNAL_HEAT_SOURCE=200.
      /
&OBST ID='SPHERE_106'
      XB=-0.091,0.091,-0.008,0.008,0.041,0.046
      SURF_ID='SPHERE'
      HT3D=.TRUE., MATL_ID='orange',  INTERNAL_HEAT_SOURCE=200.
      /
&OBST ID='SPHERE_107'
      XB=-0.048,0.048,0.035,0.040,0.076,0.081
      SURF_ID='SPHERE'
      HT3D=.TRUE., MATL_ID='orange',  INTERNAL_HEAT_SOURCE=200.
      /
&OBST ID='SPHERE_108'
      XB=-0.067,0.067,0.006,0.021,-0.075,-0.071
      SURF_ID='SPHERE'
      HT3D=.TRUE., MATL_ID='orange',  INTERNAL_HEAT_SOURCE=200.
      /
&OBST ID='SPHERE_109'
      XB=-0.048,0.048,-0.029,-0.022,0.081,0.086
      SURF_ID='SPHERE'
      HT3D=.TRUE., MATL_ID='orange',  INTERNAL_HEAT_SOURCE=200.
      /
&OBST ID='SPHERE_110'
      XB=-0.067,0.067,-0.035,-0.027,0.065,0.070
      SURF_ID='SPHERE'
      HT3D=.TRUE., MATL_ID='orange',  INTERNAL_HEAT_SOURCE=200.
      /
&OBST ID='SPHERE_111'
      XB=-0.059,0.059,0.014,0.024,0.076,0.081
      SURF_ID='SPHERE'
      HT3D=.TRUE., MATL_ID='orange',  INTERNAL_HEAT_SOURCE=200.
      /
&OBST ID='SPHERE_112'
      XB=-0.027,0.027,-0.083,-0.079,-0.054,-0.049
      SURF_ID='SPHERE'
      HT3D=.TRUE., MATL_ID='orange',  INTERNAL_HEAT_SOURCE=200.
      /
&OBST ID='SPHERE_113'
      XB=-0.054,0.054,-0.040,-0.035,0.073,0.078
      SURF_ID='SPHERE'
      HT3D=.TRUE., MATL_ID='orange',  INTERNAL_HEAT_SOURCE=200.
      /
&OBST ID='SPHERE_114'
      XB=-0.073,0.073,-0.010,0.010,0.068,0.073
      SURF_ID='SPHERE'
      HT3D=.TRUE., MATL_ID='orange',  INTERNAL_HEAT_SOURCE=200.
      /
&OBST ID='SPHERE_115'
      XB=-0.089,0.089,-0.037,-0.025,-0.037,-0.033
      SURF_ID='SPHERE'
      HT3D=.TRUE., MATL_ID='orange',  INTERNAL_HEAT_SOURCE=200.
      /
&OBST ID='SPHERE_116'
      XB=-0.040,0.040,-0.083,-0.079,0.041,0.046
      SURF_ID='SPHERE'
      HT3D=.TRUE., MATL_ID='orange',  INTERNAL_HEAT_SOURCE=200.
      /
&OBST ID='SPHERE_117'
      XB=-0.097,0.097,-0.024,-0.000,-0.024,-0.019
      SURF_ID='SPHERE'
      HT3D=.TRUE., MATL_ID='orange',  INTERNAL_HEAT_SOURCE=200.
      /
&OBST ID='SPHERE_118'
      XB=-0.078,0.078,0.052,0.056,-0.035,-0.030
      SURF_ID='SPHERE'
      HT3D=.TRUE., MATL_ID='orange',  INTERNAL_HEAT_SOURCE=200.
      /
&OBST ID='SPHERE_119'
      XB=-0.086,0.086,-0.019,0.019,0.049,0.054
      SURF_ID='SPHERE'
      HT3D=.TRUE., MATL_ID='orange',  INTERNAL_HEAT_SOURCE=200.
      /
&OBST ID='SPHERE_120'
      XB=-0.094,0.094,0.003,0.024,-0.032,-0.027
      SURF_ID='SPHERE'
      HT3D=.TRUE., MATL_ID='orange',  INTERNAL_HEAT_SOURCE=200.
      /
&OBST ID='SPHERE_121'
      XB=-0.075,0.075,0.025,0.035,-0.062,-0.057
      SURF_ID='SPHERE'
      HT3D=.TRUE., MATL_ID='orange',  INTERNAL_HEAT_SOURCE=200.
      /
&OBST ID='SPHERE_122'
      XB=-0.029,0.029,-0.016,-0.008,-0.097,-0.092
      SURF_ID='SPHERE'
      HT3D=.TRUE., MATL_ID='orange',  INTERNAL_HEAT_SOURCE=200.
      /
&OBST ID='SPHERE_123'
      XB=-0.089,0.089,-0.019,0.019,0.044,0.048
      SURF_ID='SPHERE'
      HT3D=.TRUE., MATL_ID='orange',  INTERNAL_HEAT_SOURCE=200.
      /
&OBST ID='SPHERE_124'
      XB=-0.032,0.032,-0.086,-0.081,-0.046,-0.041
      SURF_ID='SPHERE'
      HT3D=.TRUE., MATL_ID='orange',  INTERNAL_HEAT_SOURCE=200.
      /
&OBST ID='SPHERE_125'
      XB=-0.062,0.062,-0.056,-0.052,0.054,0.059
      SURF_ID='SPHERE'
      HT3D=.TRUE., MATL_ID='orange',  INTERNAL_HEAT_SOURCE=200.
      /
&OBST ID='SPHERE_126'
      XB=-0.051,0.051,-0.064,-0.060,0.057,0.062
      SURF_ID='SPHERE'
      HT3D=.TRUE., MATL_ID='orange',  INTERNAL_HEAT_SOURCE=200.
      /
&OBST ID='SPHERE_127'
      XB=-0.075,0.075,-0.027,-0.017,0.060,0.064
      SURF_ID='SPHERE'
      HT3D=.TRUE., MATL_ID='orange',  INTERNAL_HEAT_SOURCE=200.
      /
&OBST ID='SPHERE_128'
      XB=-0.089,0.089,0.033,0.043,-0.029,-0.025
      SURF_ID='SPHERE'
      HT3D=.TRUE., MATL_ID='orange',  INTERNAL_HEAT_SOURCE=200.
      /
&OBST ID='SPHERE_129'
      XB=-0.083,0.083,-0.013,0.013,0.054,0.059
      SURF_ID='SPHERE'
      HT3D=.TRUE., MATL_ID='orange',  INTERNAL_HEAT_SOURCE=200.
      /
&OBST ID='SPHERE_130'
      XB=-0.035,0.035,0.060,0.064,-0.073,-0.068
      SURF_ID='SPHERE'
      HT3D=.TRUE., MATL_ID='orange',  INTERNAL_HEAT_SOURCE=200.
      /
&OBST ID='SPHERE_131'
      XB=-0.021,0.021,0.006,0.013,-0.100,-0.095
      SURF_ID='SPHERE'
      HT3D=.TRUE., MATL_ID='orange',  INTERNAL_HEAT_SOURCE=200.
      /
&OBST ID='SPHERE_132'
      XB=-0.097,0.097,-0.021,0.021,0.022,0.027
      SURF_ID='SPHERE'
      HT3D=.TRUE., MATL_ID='orange',  INTERNAL_HEAT_SOURCE=200.
      /
&OBST ID='SPHERE_133'
      XB=-0.027,0.027,-0.032,-0.027,0.089,0.094
      SURF_ID='SPHERE'
      HT3D=.TRUE., MATL_ID='orange',  INTERNAL_HEAT_SOURCE=200.
      /
&OBST ID='SPHERE_134'
      XB=-0.048,0.048,0.008,0.019,0.084,0.089
      SURF_ID='SPHERE'
      HT3D=.TRUE., MATL_ID='orange',  INTERNAL_HEAT_SOURCE=200.
      /
&OBST ID='SPHERE_135'
      XB=-0.032,0.032,0.076,0.081,-0.056,-0.052
      SURF_ID='SPHERE'
      HT3D=.TRUE., MATL_ID='orange',  INTERNAL_HEAT_SOURCE=200.
      /
&OBST ID='SPHERE_136'
      XB=-0.094,0.094,0.003,0.024,0.027,0.032
      SURF_ID='SPHERE'
      HT3D=.TRUE., MATL_ID='orange',  INTERNAL_HEAT_SOURCE=200.
      /
&OBST ID='SPHERE_137'
      XB=-0.062,0.062,-0.043,-0.038,-0.070,-0.065
      SURF_ID='SPHERE'
      HT3D=.TRUE., MATL_ID='orange',  INTERNAL_HEAT_SOURCE=200.
      /
&OBST ID='SPHERE_138'
      XB=-0.064,0.064,0.033,0.040,0.065,0.070
      SURF_ID='SPHERE'
      HT3D=.TRUE., MATL_ID='orange',  INTERNAL_HEAT_SOURCE=200.
      /
&OBST ID='SPHERE_139'
      XB=-0.070,0.070,-0.056,-0.049,-0.051,-0.046
      SURF_ID='SPHERE'
      HT3D=.TRUE., MATL_ID='orange',  INTERNAL_HEAT_SOURCE=200.
      /
&OBST ID='SPHERE_140'
      XB=-0.073,0.073,-0.073,-0.065,-0.008,-0.003
      SURF_ID='SPHERE'
      HT3D=.TRUE., MATL_ID='orange',  INTERNAL_HEAT_SOURCE=200.
      /
&OBST ID='SPHERE_141'
      XB=-0.056,0.056,-0.062,-0.057,-0.059,-0.054
      SURF_ID='SPHERE'
      HT3D=.TRUE., MATL_ID='orange',  INTERNAL_HEAT_SOURCE=200.
      /
&OBST ID='SPHERE_142'
      XB=-0.051,0.051,0.017,0.024,0.081,0.086
      SURF_ID='SPHERE'
      HT3D=.TRUE., MATL_ID='orange',  INTERNAL_HEAT_SOURCE=200.
      /
&OBST ID='SPHERE_143'
      XB=-0.078,0.078,0.041,0.048,-0.046,-0.041
      SURF_ID='SPHERE'
      HT3D=.TRUE., MATL_ID='orange',  INTERNAL_HEAT_SOURCE=200.
      /
&OBST ID='SPHERE_144'
      XB=-0.040,0.040,-0.010,0.010,-0.094,-0.089
      SURF_ID='SPHERE'
      HT3D=.TRUE., MATL_ID='orange',  INTERNAL_HEAT_SOURCE=200.
      /
&OBST ID='SPHERE_145'
      XB=-0.062,0.062,0.052,0.056,-0.059,-0.054
      SURF_ID='SPHERE'
      HT3D=.TRUE., MATL_ID='orange',  INTERNAL_HEAT_SOURCE=200.
      /
&OBST ID='SPHERE_146'
      XB=-0.091,0.091,0.014,0.027,0.033,0.037
      SURF_ID='SPHERE'
      HT3D=.TRUE., MATL_ID='orange',  INTERNAL_HEAT_SOURCE=200.
      /
&OBST ID='SPHERE_147'
      XB=-0.043,0.043,0.084,0.089,-0.029,-0.022
      SURF_ID='SPHERE'
      HT3D=.TRUE., MATL_ID='orange',  INTERNAL_HEAT_SOURCE=200.
      /
&OBST ID='SPHERE_148'
      XB=-0.032,0.032,-0.083,-0.079,0.046,0.051
      SURF_ID='SPHERE'
      HT3D=.TRUE., MATL_ID='orange',  INTERNAL_HEAT_SOURCE=200.
      /
&OBST ID='SPHERE_149'
      XB=-0.070,0.070,0.046,0.054,0.049,0.054
      SURF_ID='SPHERE'
      HT3D=.TRUE., MATL_ID='orange',  INTERNAL_HEAT_SOURCE=200.
      /
&OBST ID='SPHERE_150'
      XB=-0.048,0.048,0.060,0.064,0.060,0.064
      SURF_ID='SPHERE'
      HT3D=.TRUE., MATL_ID='orange',  INTERNAL_HEAT_SOURCE=200.
      /
&OBST ID='SPHERE_151'
      XB=-0.024,0.024,-0.086,-0.081,-0.051,-0.046
      SURF_ID='SPHERE'
      HT3D=.TRUE., MATL_ID='orange',  INTERNAL_HEAT_SOURCE=200.
      /
&OBST ID='SPHERE_152'
      XB=-0.086,0.086,-0.032,-0.022,0.041,0.046
      SURF_ID='SPHERE'
      HT3D=.TRUE., MATL_ID='orange',  INTERNAL_HEAT_SOURCE=200.
      /
&OBST ID='SPHERE_153'
      XB=-0.089,0.089,0.022,0.032,-0.040,-0.035
      SURF_ID='SPHERE'
      HT3D=.TRUE., MATL_ID='orange',  INTERNAL_HEAT_SOURCE=200.
      /
&OBST ID='SPHERE_154'
      XB=-0.027,0.027,0.079,0.083,-0.054,-0.049
      SURF_ID='SPHERE'
      HT3D=.TRUE., MATL_ID='orange',  INTERNAL_HEAT_SOURCE=200.
      /
&OBST ID='SPHERE_155'
      XB=-0.059,0.059,-0.013,0.013,0.079,0.083
      SURF_ID='SPHERE'
      HT3D=.TRUE., MATL_ID='orange',  INTERNAL_HEAT_SOURCE=200.
      /
&OBST ID='SPHERE_156'
      XB=-0.059,0.059,-0.062,-0.057,0.052,0.056
      SURF_ID='SPHERE'
      HT3D=.TRUE., MATL_ID='orange',  INTERNAL_HEAT_SOURCE=200.
      /
&OBST ID='SPHERE_157'
      XB=-0.097,0.097,0.014,0.027,0.011,0.016
      SURF_ID='SPHERE'
      HT3D=.TRUE., MATL_ID='orange',  INTERNAL_HEAT_SOURCE=200.
      /
&OBST ID='SPHERE_158'
      XB=-0.067,0.067,0.038,0.043,0.060,0.064
      SURF_ID='SPHERE'
      HT3D=.TRUE., MATL_ID='orange',  INTERNAL_HEAT_SOURCE=200.
      /
&OBST ID='SPHERE_159'
      XB=-0.056,0.056,-0.021,-0.011,0.079,0.083
      SURF_ID='SPHERE'
      HT3D=.TRUE., MATL_ID='orange',  INTERNAL_HEAT_SOURCE=200.
      /
&OBST ID='SPHERE_160'
      XB=-0.048,0.048,0.065,0.070,0.054,0.059
      SURF_ID='SPHERE'
      HT3D=.TRUE., MATL_ID='orange',  INTERNAL_HEAT_SOURCE=200.
      /
&OBST ID='SPHERE_161'
      XB=-0.040,0.040,-0.078,-0.073,0.049,0.054
      SURF_ID='SPHERE'
      HT3D=.TRUE., MATL_ID='orange',  INTERNAL_HEAT_SOURCE=200.
      /
&OBST ID='SPHERE_162'
      XB=-0.100,0.100,-0.019,0.019,0.008,0.013
      SURF_ID='SPHERE'
      HT3D=.TRUE., MATL_ID='orange',  INTERNAL_HEAT_SOURCE=200.
      /
&OBST ID='SPHERE_163'
      XB=-0.029,0.029,-0.094,-0.089,-0.027,-0.022
      SURF_ID='SPHERE'
      HT3D=.TRUE., MATL_ID='orange',  INTERNAL_HEAT_SOURCE=200.
      /
&OBST ID='SPHERE_164'
      XB=-0.081,0.081,0.030,0.037,0.046,0.051
      SURF_ID='SPHERE'
      HT3D=.TRUE., MATL_ID='orange',  INTERNAL_HEAT_SOURCE=200.
      /
&OBST ID='SPHERE_165'
      XB=-0.083,0.083,0.003,0.021,-0.056,-0.052
      SURF_ID='SPHERE'
      HT3D=.TRUE., MATL_ID='orange',  INTERNAL_HEAT_SOURCE=200.
      /
&OBST ID='SPHERE_166'
      XB=-0.097,0.097,-0.027,-0.008,-0.021,-0.017
      SURF_ID='SPHERE'
      HT3D=.TRUE., MATL_ID='orange',  INTERNAL_HEAT_SOURCE=200.
      /
&OBST ID='SPHERE_167'
      XB=-0.086,0.086,-0.027,-0.017,-0.048,-0.044
      SURF_ID='SPHERE'
      HT3D=.TRUE., MATL_ID='orange',  INTERNAL_HEAT_SOURCE=200.
      /
&OBST ID='SPHERE_168'
      XB=-0.075,0.075,0.052,0.056,-0.040,-0.035
      SURF_ID='SPHERE'
      HT3D=.TRUE., MATL_ID='orange',  INTERNAL_HEAT_SOURCE=200.
      /
&OBST ID='SPHERE_169'
      XB=-0.073,0.073,0.003,0.021,-0.070,-0.065
      SURF_ID='SPHERE'
      HT3D=.TRUE., MATL_ID='orange',  INTERNAL_HEAT_SOURCE=200.
      /
&OBST ID='SPHERE_170'
      XB=-0.097,0.097,0.011,0.027,0.014,0.019
      SURF_ID='SPHERE'
      HT3D=.TRUE., MATL_ID='orange',  INTERNAL_HEAT_SOURCE=200.
      /
&OBST ID='SPHERE_171'
      XB=-0.016,0.016,-0.062,-0.057,-0.081,-0.076
      SURF_ID='SPHERE'
      HT3D=.TRUE., MATL_ID='orange',  INTERNAL_HEAT_SOURCE=200.
      /
&OBST ID='SPHERE_172'
      XB=-0.097,0.097,0.017,0.029,0.008,0.013
      SURF_ID='SPHERE'
      HT3D=.TRUE., MATL_ID='orange',  INTERNAL_HEAT_SOURCE=200.
      /
&OBST ID='SPHERE_173'
      XB=-0.054,0.054,-0.083,-0.079,0.022,0.027
      SURF_ID='SPHERE'
      HT3D=.TRUE., MATL_ID='orange',  INTERNAL_HEAT_SOURCE=200.
      /
&OBST ID='SPHERE_174'
      XB=-0.083,0.083,-0.048,-0.041,0.030,0.035
      SURF_ID='SPHERE'
      HT3D=.TRUE., MATL_ID='orange',  INTERNAL_HEAT_SOURCE=200.