&HEAD CHID='ranch_04',TITLE='2 room ranch, ceiling vented, SVN $Revision: 1959 $'/

&MESH IJK=36,18,24, XB=0.0,3.6,-0.8,1.0,0.0,2.4 /
&MESH IJK=36,18,24, XB=0.0,3.6, 1.0,2.8,0.0,2.4 /
&MESH IJK=36,18,24, XB=3.6,7.2,-0.8,1.0,0.0,2.4 /
&MESH IJK=36,18,24, XB=3.6,7.2, 1.0,2.8,0.0,2.4 /
&MESH IJK=36,18,24, XB=0.0,3.6,-0.8,1.0,2.4,4.8 /
&MESH IJK=36,18,24, XB=0.0,3.6, 1.0,2.8,2.4,4.8 /
&MESH IJK=36,18,24, XB=3.6,7.2,-0.8,1.0,2.4,4.8 /
&MESH IJK=36,18,24, XB=3.6,7.2, 1.0,2.8,2.4,4.8 /

&DUMP NFRAMES=6000 /

&TIME TWFIN=1200. /
&MISC SURF_DEFAULT='GYPSUM BOARD' /
&SURF ID='BURNER',HRRPUA=1000. /

&DEVC XYZ=0.0,0.0,0.0,ID='removeobst_0',SETPOINT=0.0,QUANTITY='TIME', INITIAL_STATE=.TRUE./
&DEVC XYZ=0.0,0.0,0.0,ID='removeobst_0b',SETPOINT=0.0,QUANTITY='TIME', INITIAL_STATE=.TRUE./
&DEVC XYZ=0.0,0.0,0.0,ID='addhole_0',SETPOINT=0.0,QUANTITY='TIME', INITIAL_STATE=.FALSE./

xOBST XB=4.0,5.0,0.0,0.1,0.2,2.2,SURF_ID='OAK' /  door
&HOLE XB=0.5,2.0,0.5,2.0,2.2,2.8,DEVC_ID='addhole_0' /  ceiling vent
&HOLE XB=0.5,1.5,0.4,1.3,2.6,3.2,DEVC_ID='addhole_0' /  roof vent

xHOLE XB=0.9,2.8,-0.1,0.1,0.7,2.0,DEVC_ID='addhole_0' / bedroom window
xHOLE XB=5.6,6.6,-0.1,0.1,1.1,2.0,DEVC_ID='addhole_0' / living room window

&OBST XB=4.0,5.0,0.0,0.1,0.0,0.2,SURF_ID='OAK',DEVC_ID='removeobst_0' /  door leak

&SURF ID='OAK'
      STRETCH_FACTOR = 1.
      CELL_SIZE_FACTOR = 0.5
      RGB            = 104,52,0
      MATL_ID(1,1:3) = 'CELLULOSE','WATER','LIGNIN'
      MATL_MASS_FRACTION(1,1:3) = 0.70,0.1,0.20
      THICKNESS  =  0.02 /

&RAMP ID='k_cell', T= 20., F=0.15 /
&RAMP ID='k_cell', T=500., F=0.29 /

&RAMP ID='k_char', T= 20., F=0.08 /
&RAMP ID='k_char', T=900., F=0.25 /

&MATL ID               = 'CELLULOSE'
      CONDUCTIVITY_RAMP = 'k_cell'
      SPECIFIC_HEAT    = 2.3
      DENSITY          = 400.
      N_REACTIONS      = 1
      A                = 2.8E19
      E                = 2.424E5
      HEAT_OF_REACTION = 0.
      NU_RESIDUE       = 1.0
      RESIDUE          = 'ACTIVE'/

Water evaporation from original wood

&MATL ID               = 'WATER'
      EMISSIVITY       = 1.0
      DENSITY          = 1000.
      CONDUCTIVITY     = 0.6
      SPECIFIC_HEAT    = 4.19
      N_REACTIONS      = 1
      A                = 1E20
      E                = 1.62E+05
      NU_WATER         = 1.0
      HEAT_OF_REACTION = 2260. /

&MATL ID               = 'LIGNIN'
      EMISSIVITY       = 1.0
      DENSITY          = 550.
      CONDUCTIVITY     = 0.1
      SPECIFIC_HEAT    = 1.1 /

&MATL ID                    = 'ACTIVE'
      EMISSIVITY            = 1.0
      CONDUCTIVITY_RAMP     = 'k_cell'
      SPECIFIC_HEAT         = 2.3
      DENSITY               = 400.
      N_REACTIONS           = 2
      A(1:2)                = 1.3E10,  3.23E14
      E(1:2)                = 1.505E5, 1.965E5
      HEAT_OF_REACTION(1:2) = 418.,    418.
      NU_RESIDUE(1:2)       = 0.35,    0.0
      NU_FUEL(1:2)          = 0.65,    1.0
      RESIDUE(1)            = 'CHAR' /  The arguments (1:2) refer to the 2 REACTIONS

&MATL ID               = 'CHAR'
      EMISSIVITY       = 1.0
      DENSITY          = 140.
      CONDUCTIVITY_RAMP = 'k_char'
      SPECIFIC_HEAT    = 1.1 /

&SURF ID             = 'MATTRESS'
      FYI            = 'Properties completely fabricated'
      RGB            = 151,96,88
      BURN_AWAY      = .TRUE.
      MATL_ID(1:2,1) = 'MFABRIC','MFOAM'
      THICKNESS(1:2) = 0.002,0.1
      PART_ID        = 'smoke' /

&MATL ID                    = 'MFABRIC'
      FYI                   = 'Properties completely fabricated'
      SPECIFIC_HEAT         = 1.0
      CONDUCTIVITY          = 0.1
      DENSITY               = 100.0
      N_REACTIONS           = 1
      NU_FUEL               = 1.
      REFERENCE_TEMPERATURE = 350.
      HEAT_OF_REACTION      = 3000.
      HEAT_OF_COMBUSTION    = 15000. /

&MATL ID                    = 'MFOAM'
      FYI                   = 'Properties completely fabricated'
      SPECIFIC_HEAT         = 1.0
      CONDUCTIVITY          = 0.05
      DENSITY               = 15.0
      N_REACTIONS           = 1
      NU_FUEL               = 1.
      REFERENCE_TEMPERATURE = 350.
      HEAT_OF_REACTION      = 500.
      HEAT_OF_COMBUSTION    = 35000. /

&SURF ID             = 'UPHOLSTERY'
      FYI            = 'Properties completely fabricated'
      RGB            = 151,96,88
      BURN_AWAY      = .TRUE.
      MATL_ID(1:2,1) = 'FABRIC','FOAM'
      THICKNESS(1:2) = 0.002,0.1
      PART_ID        = 'smoke' /

&MATL ID                    = 'FABRIC'
      FYI                   = 'Properties completely fabricated'
      SPECIFIC_HEAT         = 1.0
      CONDUCTIVITY          = 0.1
      DENSITY               = 100.0
      N_REACTIONS           = 1
      NU_FUEL               = 1.
      REFERENCE_TEMPERATURE = 350.
      HEAT_OF_REACTION      = 3000.
      HEAT_OF_COMBUSTION    = 15000. /

&MATL ID                    = 'FOAM'
      FYI                   = 'Properties completely fabricated'
      SPECIFIC_HEAT         = 1.0
      CONDUCTIVITY          = 0.05
      DENSITY               = 40.0
      N_REACTIONS           = 1
      NU_FUEL               = 1.
      REFERENCE_TEMPERATURE = 350.
      HEAT_OF_REACTION      = 400.
      HEAT_OF_COMBUSTION    = 33000. /


&SURF ID             = 'GYPSUM BOARD'
      RGB            = 200,200,200
      MATL_ID        = 'GYPSUM PLASTER'
      THICKNESS      = 0.012 /

&MATL ID            = 'GYPSUM PLASTER'
      FYI           = 'Quintiere, Fire Behavior'
      CONDUCTIVITY  = 0.48
      SPECIFIC_HEAT = 0.84
      DENSITY       = 1440. /

&SURF ID             = 'CARPET'
      FYI            = 'Properties completely fabricated'
      RGB            = 150,200,255
      BURN_AWAY      = .FALSE.
      MATL_ID        = 'GYPSUM PLASTER'
      THICKNESS      = 0.002
      PART_ID        = 'smoke' /

&SURF ID             = 'ROOF'
      FYI            = 'Properties completely fabricated'
      RGB            = 50,50,50
      BURN_AWAY      = .FALSE.
      MATL_ID        = 'GYPSUM PLASTER'
      THICKNESS      = 0.02
      PART_ID        = 'smoke' /


&PART ID='smoke', MASSLESS=.TRUE., SAMPLING_FACTOR=10 /

&OBST XB=0.3, 0.8, 0.5, 1.5, 0.4, 0.6, SURF_ID='MATTRESS'/ pillow
&OBST XB=0.3, 2.3, 0.5, 1.5, 0.0, 0.4, SURF_ID='MATTRESS'/ mattress
&HOLE XB=0.4, 2.2, 0.6, 1.4, 0.1, 0.3  /
&HOLE XB=0.2, 0.9, 0.8, 1.2, 0.0, 0.2  /
&HOLE XB=2.2, 2.4, 0.8, 1.2, 0.0, 0.2  /

&SURF ID='BURNER',HRRPUA=1000. /
&VENT XB=6.0,6.2, 2.2, 2.4,0.5,0.5,SURF_ID='BURNER'/  sofa fire
&OBST   XB=4.4, 6.4, 2.4, 2.6, 0.5, 0.9  ,   SURF_ID='UPHOLSTERY'/  sofa
&OBST   XB=4.4, 4.6, 1.9, 2.4, 0.5, 0.6  ,   SURF_ID='UPHOLSTERY'/  sofa
&OBST   XB=6.2, 6.4, 1.9, 2.4, 0.5, 0.6  ,   SURF_ID='UPHOLSTERY'/  sofa
&OBST   XB=4.4, 6.4, 1.9, 2.6, 0.0, 0.5  ,   SURF_ID='UPHOLSTERY'/  sofa
&HOLE   XB=4.6, 6.2, 2.1, 2.4, 0.0, 0.4  /
&HOLE   XB=4.4, 6.4, 2.4, 2.6, 0.0, 0.1  /


&OBST XB=0.0,7.2, 0.1,2.8,2.4,2.5 /  ceiling

&VENT XB=0.0,0.0,-0.8,0.0,0.0,4.8,SURF_ID='OPEN',COLOR='INVISIBLE'/
&VENT XB=7.2,7.2,-0.8,0.0,0.0,4.8,SURF_ID='OPEN',COLOR='INVISIBLE'/
&VENT XB=0.0,7.2,-0.8,-0.8,0.0,4.8,SURF_ID='OPEN',COLOR='INVISIBLE'/
&VENT XB=0.0,7.2,-0.8,0.0,4.8,4.8,SURF_ID='OPEN',COLOR='INVISIBLE'/

&OBST XB=0.0,4.0,0.0,0.1,0.0,2.5,SURF_ID='GYPSUM BOARD',OUTLINE=.TRUE./  FRONT WALL
&OBST XB=5.0,7.2,0.0,0.1,0.0,2.5,SURF_ID='GYPSUM BOARD',OUTLINE=.TRUE./  FRONT WALL
&OBST XB=4.0,5.0,0.0,0.1,2.2,2.5,SURF_ID='GYPSUM BOARD',OUTLINE=.TRUE./  FRONT WALL

&OBST XB=0.0,7.2,0.0,0.3,2.5,2.6,SURF_ID='ROOF'/
&VENT XB=0.0,0.0,0.0,0.2,2.6,4.8,SURF_ID='OPEN',COLOR='INVISIBLE'/
&VENT XB=7.2,7.2,0.0,0.2,2.6,4.8,SURF_ID='OPEN',COLOR='INVISIBLE'/

&OBST XB=0.0,7.2,0.2,0.5,2.6,2.7,SURF_ID='ROOF'/

&VENT XB=0.0,0.0,0.2,0.4,2.7,4.8,SURF_ID='OPEN',COLOR='INVISIBLE'/
&VENT XB=7.2,7.2,0.2,0.4,2.7,4.8,SURF_ID='OPEN',COLOR='INVISIBLE'/


&VENT XB=0.0,7.2,0.0,2.8,0.0,0.0,SURF_ID='CARPET' / floor
&OBST XB=0.0,7.2,0.4,0.7,2.7,2.8,SURF_ID='ROOF'/

&VENT XB=0.0,0.0,0.4,0.6,2.7,4.8,SURF_ID='OPEN',COLOR='INVISIBLE'/
&VENT XB=7.2,7.2,0.4,0.6,2.7,4.8,SURF_ID='OPEN',COLOR='INVISIBLE'/


&OBST XB=0.0,7.2,0.6,0.9,2.8,2.9,SURF_ID='ROOF'/
&VENT XB=0.0,0.0,0.6,0.8,2.8,4.8,SURF_ID='OPEN',COLOR='INVISIBLE'/
&VENT XB=7.2,7.2,0.6,0.8,2.8,4.8,SURF_ID='OPEN',COLOR='INVISIBLE'/


&OBST XB=0.0,7.2,0.8,1.1,2.9,3.0,SURF_ID='ROOF'/
&VENT XB=0.0,0.0,0.8,1.0,2.9,4.8,SURF_ID='OPEN',COLOR='INVISIBLE'/
&VENT XB=7.2,7.2,0.8,1.0,2.9,4.8,SURF_ID='OPEN',COLOR='INVISIBLE'/


&OBST XB=0.0,7.2,1.0,1.3,3.0,3.1,SURF_ID='ROOF'/
&VENT XB=0.0,0.0,1.0,1.2,3.0,4.8,SURF_ID='OPEN',COLOR='INVISIBLE'/
&VENT XB=7.2,7.2,1.0,1.2,3.0,4.8,SURF_ID='OPEN',COLOR='INVISIBLE'/

&OBST XB=0.0,7.2,1.2,1.5,3.1,3.2,SURF_ID='ROOF'/
&VENT XB=0.0,0.0,1.2,1.4,3.1,4.8,SURF_ID='OPEN',COLOR='INVISIBLE'/
&VENT XB=7.2,7.2,1.2,1.4,3.1,4.8,SURF_ID='OPEN',COLOR='INVISIBLE'/

&OBST XB=0.0,7.2,1.4,1.7,3.2,3.3,SURF_ID='ROOF'/
&VENT XB=0.0,0.0,1.4,1.6,3.2,4.8,SURF_ID='OPEN',COLOR='INVISIBLE'/
&VENT XB=7.2,7.2,1.4,1.6,3.2,4.8,SURF_ID='OPEN',COLOR='INVISIBLE'/


&OBST XB=0.0,7.2,1.6,1.9,3.3,3.4,SURF_ID='ROOF'/
&VENT XB=0.0,0.0,1.6,1.8,3.3,4.8,SURF_ID='OPEN',COLOR='INVISIBLE'/
&VENT XB=7.2,7.2,1.6,1.8,3.3,4.8,SURF_ID='OPEN',COLOR='INVISIBLE'/

&OBST XB=0.0,7.2,1.8,2.1,3.4,3.5,SURF_ID='ROOF'/
&VENT XB=0.0,0.0,1.8,2.0,3.4,4.8,SURF_ID='OPEN',COLOR='INVISIBLE'/
&VENT XB=7.2,7.2,1.8,2.0,3.4,4.8,SURF_ID='OPEN',COLOR='INVISIBLE'/

&OBST XB=0.0,7.2,2.0,2.3,3.5,3.6,SURF_ID='ROOF'/
&VENT XB=0.0,0.0,2.0,2.2,3.5,4.8,SURF_ID='OPEN',COLOR='INVISIBLE'/
&VENT XB=7.2,7.2,2.0,2.2,3.5,4.8,SURF_ID='OPEN',COLOR='INVISIBLE'/

&OBST XB=0.0,7.2,2.2,2.5,3.6,3.7,SURF_ID='ROOF'/
&VENT XB=0.0,0.0,2.2,2.4,3.6,4.8,SURF_ID='OPEN',COLOR='INVISIBLE'/
&VENT XB=7.2,7.2,2.2,2.4,3.6,4.8,SURF_ID='OPEN',COLOR='INVISIBLE'/

&OBST XB=0.0,7.2,2.4,2.7,3.7,3.8,SURF_ID='ROOF'/
&VENT XB=0.0,0.0,2.4,2.6,3.7,4.8,SURF_ID='OPEN',COLOR='INVISIBLE'/
&VENT XB=7.2,7.2,2.4,2.6,3.7,4.8,SURF_ID='OPEN',COLOR='INVISIBLE'/


&OBST XB=0.0,7.2,2.6,2.9,3.8,3.9,SURF_ID='ROOF'/
&VENT XB=0.0,0.0,2.6,2.8,3.8,4.8,SURF_ID='OPEN',COLOR='INVISIBLE'/
&VENT XB=7.2,7.2,2.6,2.8,3.8,4.8,SURF_ID='OPEN',COLOR='INVISIBLE'/


&VENT XB=0.0,7.2,2.8,2.8,3.9,4.8,SURF_ID='OPEN',COLOR='INVISIBLE'/  
&VENT XB=0.0,7.2,0.0,2.8,4.8,4.8,SURF_ID='OPEN',COLOR='INVISIBLE'/  



&OBST   XB=3.6, 3.7, 1.3, 2.8, 0.000000, 2.400000/ wall
&OBST   XB=3.6, 3.7, 0.5, 1.3, 2.200000, 2.400000/ wall
&OBST   XB=3.6, 3.7, 0.1, 0.5, 0.000000, 2.400000/ wall

&SLCF PBX=4.5,QUANTITY='TEMPERATURE',VECTOR=.TRUE. /
&SLCF PBX=6.1,QUANTITY='TEMPERATURE',VECTOR=.TRUE. /
&SLCF PBY=0.9,QUANTITY='TEMPERATURE',VECTOR=.TRUE. /
&SLCF PBY=2.2,QUANTITY='TEMPERATURE',VECTOR=.TRUE. /
&SLCF PBZ=2.3,QUANTITY='TEMPERATURE',VECTOR=.TRUE. /

&SLCF PBX=4.5,QUANTITY='oxygen' /
&SLCF PBX=6.1,QUANTITY='oxygen' /
&SLCF PBY=0.9,QUANTITY='oxygen' /
&SLCF PBY=2.2,QUANTITY='oxygen' /
&SLCF PBZ=2.3,QUANTITY='oxygen' /

&BNDF QUANTITY='WALL_TEMPERATURE' /
&BNDF QUANTITY='HEAT_FLUX' /
&BNDF QUANTITY='RADIATIVE_FLUX' /
&BNDF QUANTITY='BURNING_RATE' /

&ISOF QUANTITY='TEMPERATURE',VALUE=100.0 /
&ISOF QUANTITY='TEMPERATURE',VALUE=300.0 /
&ISOF QUANTITY='TEMPERATURE',VALUE=600.0 /
