&HEAD CHID='race_test_4' /

&MESH IJK=14,18,32, XB=-0.85,-0.15,-0.45, 0.45, 0.00, 1.60 /
&MESH IJK=14,18,32, XB= 0.85, 0.15,-0.45, 0.45, 0.00, 1.60 /
&MESH IJK=30,30,20, XB=-0.15, 0.15,-0.15, 0.15, 0.00, 0.20 /
&MESH IJK= 6, 6,28, XB=-0.15, 0.15,-0.15, 0.15, 0.20, 1.60 /
&MESH IJK= 6, 6,32, XB=-0.15, 0.15,-0.45,-0.15, 0.00, 1.60 /
&MESH IJK= 6, 6,32, XB=-0.15, 0.15, 0.15, 0.45, 0.00, 1.60 /

&TIME T_END=5. /

&REAC FUEL='N-HEXANE'
      CO_YIELD=0.100
      SOOT_YIELD=0.010 /

&SURF ID='FIRE'
      RGB=204,27,0
      MASS_FLUX(1)=0.0185
      SPEC_ID(1)='N-HEXANE'
      RAMP_MF='RAMP MLRPUA' /

&RAMP ID='RAMP MLRPUA', T= 0, F=0.3896 /
&RAMP ID='RAMP MLRPUA', T=10, F=0.318 /

&OBST XB=-0.100,0.100,-0.150,0.150,0,0.120, COLOR='WHITE' /

&VENT ID='poolfire', SURF_ID='FIRE', XB=-0.040,0.040,-0.040,0.040,0.120,0.120, XYZ=0,0,0.120, RADIUS=0.030 /

&DUMP DT_DEVC=0.5 /

&DEVC ID='TMP', XYZ=0,0,0.144, QUANTITY='TEMPERATURE', TIME_AVERAGED=.FALSE. /
&DEVC ID='VEL', XYZ=0,0,0.144, QUANTITY='VELOCITY', TIME_AVERAGED=.FALSE. /

&TAIL/
