 FDS+Evac version: FDS 6.1.2, Evac 2.5.0

 A simple test case for memory usage of FDS+Evac.  Evacuation
 part is k=1 mesh ==> surface to volume ratio is large so the
 surface cells/arrays take some memory, but the surface +-u_z
 are not needed in reality, because two dimensional calculation.

 SVN Revision No. : 21192

&HEAD CHID='evac_memory_test1',TITLE='test for RAM: fire+evac meshes' /

 Fire mesh
&MESH IJK=100, 80, 4 XB=0.0,50.0, 0.0,40.0, 0.0,2.0 /

 Evac meshes
&MESH IJK=200, 160, 1, XB=0.0,50.0, 0.0,40.0, 1.45,1.55, EVAC_Z_OFFSET=1.5, 
      EVACUATION=.TRUE.,  EVAC_HUMANS=.TRUE., ID = 'FF1stFloor'  /

 
&TIME T_END=10.0, DT=0.1,   /
 
&MISC EVACUATION_MC_MODE=.FALSE., NO_EVACUATION=.FALSE., EVACUATION_DRILL=.FALSE. /

&DUMP NFRAMES= 10,
      SMOKE3D=.TRUE.,
      DT_PART=1.0,
      DT_HRR= 1.0
      DT_SLCF=1000.0,
      DT_PL3D=1000.0,
      DT_ISOF=1000.0 /

&MATL ID= 'GYPSUM PLASTER'
      FYI= 'Quintiere, Fire Behavior'
      CONDUCTIVITY= 0.48
      SPECIFIC_HEAT= 0.84
      DENSITY= 1440.0/

&SURF ID= 'WALL'
      RGB= 100,200,100
      MATL_ID= 'GYPSUM PLASTER'
      THICKNESS= 0.012
      EVAC_DEFAULT   = .TRUE.
      DEFAULT        = .TRUE.  /

&SURF ID='Fire', HRRPUA=1000., COLOR='RASPBERRY' /

&REAC FUEL         = 'POLYURETHANE'
      FYI        = 'C_6.3 H_7.1 N O_2.1, NFPA Handbook, Babrauskas'
      SOOT_YIELD = 0.10
      N          = 1.0
      C          = 6.3
      H          = 7.1
      O          = 2.1  /

 Default material for evacuation meshes is INERT and its color
 can not be changed esily in Smokeview. Thus, an evacuation 
 material is defined below, which has only color:
&SURF ID='EVAC_WALL', RGB = 200,0,200 / or COLOR

=======================================================
============= FIRE FDS GEOMETRY STARTS ================
=======================================================

&VENT MB='XMIN' SURF_ID='OPEN',   /
&VENT MB='XMAX' SURF_ID='OPEN',   /
&VENT MB='YMIN' SURF_ID='OPEN',   /
&VENT MB='YMAX' SURF_ID='OPEN',   /
&VENT MB='ZMIN' SURF_ID='INERT',  /
&VENT MB='ZMAX' SURF_ID='INERT',  /

 The 1st floor, z=0.0m-2.0m

&OBST XB =  0.0, 0.25, 0.0,5.25, 0.0,2.0, 
      RGB = 0.3,0.8,0.2, SURF_ID='INERT'   / xbar0 wall with door
&OBST XB =  0.0, 0.25, 6.45,40., 0.0,2.0, 
      RGB = 0.3,0.8,0.2, SURF_ID='INERT'   / xbar0 wall with door
&OBST XB = 49.75,50.0, 0.0,25.25, 0.0,2.0, 
      RGB = 0.3,0.8,0.2, SURF_ID='INERT'   / xbar  wall with door
&OBST XB = 49.75,50.0, 26.45,40., 0.0,2.0, 
      RGB = 0.3,0.8,0.2, SURF_ID='INERT'   / xbar  wall with door
&OBST XB =  0.0,43.25, 0.0, 0.25, 0.0,2.0, 
      RGB = 0.3,0.8,0.2, SURF_ID='INERT'   / ybar0 wall with door
&OBST XB = 44.75,50.0, 0.0, 0.25, 0.0,2.0, 
      RGB = 0.3,0.8,0.2, SURF_ID='INERT'   / ybar0 wall with door
&OBST XB = 0.0,3.25, 39.75,40.0, 0.0,2.0, 
      RGB = 0.3,0.8,0.2, SURF_ID='INERT'   / ybar wall with door
&OBST XB = 4.45,50.0, 39.75,40.0, 0.0,2.0, 
      RGB = 0.3,0.8,0.2, SURF_ID='INERT'   / ybar wall with door
&OBST XB = 0.0,20.0, 30.0,30.25, 0.0,2.0, 
      RGB = 0.3,0.8,0.2, SURF_ID='INERT'   / y=30m -wall
&OBST XB = 30.0,50.0, 30.0,30.25, 0.0,2.0, 
      RGB = 0.3,0.8,0.2, SURF_ID='INERT'   / y=30m -wall
&OBST XB = 10.0,20.0, 10.0,10.25, 0.0,2.0, 
      RGB = 0.3,0.8,0.2, SURF_ID='INERT'   / y=10m -wall
&OBST XB = 22.0,30.25, 10.0,10.25, 0.0,2.0, 
      RGB = 0.3,0.8,0.2, SURF_ID='INERT'   / y=10m -wall
&OBST XB = 10.0,10.25, 0.0,20.0, 0.0,2.0, 
      RGB = 0.3,0.8,0.2, SURF_ID='INERT'   / x=10m -wall
&OBST XB = 30.0,30.25, 0.0,10.25, 0.0,2.0, 
      RGB = 0.3,0.8,0.2, SURF_ID='INERT'   / x=30m -wall
&OBST XB = 35.0,35.25, 20.0,30.0, 0.0,2.0, 
      RGB = 0.3,0.8,0.2, SURF_ID='INERT'   / x=35m -wall

 FIRE
&OBST XB=30.0,32.0, 1.0,3.0, 0.0,0.5 , SURF_ID='INERT' /
&VENT XB=30.0,32.0, 1.0,3.0, 0.5,0.5 , SURF_ID='Fire', RGB = 0.9,0.2,0.2   /

=======================================================
============= FIRE FDS GEOMETRY ENDS ==================
=======================================================

=======================================================
============= EVAC GEOMETRY STARTS ====================
=======================================================

 Humans can not move on top of the fire.
&OBST XB = 30.0,33.0, 0.0,4.0, 1.5,1.5, EVACUATION=.TRUE. /


 *********** First Floor Doors and Exits **************

&EXIT ID='LeftExit', IOR = -1,
      FYI = 'Comment line',
      COUNT_ONLY=.FALSE. ,
      COLOR='BLACK'
      XYZ = 0.5, 5.85, 1.50,
      XB = 0.0,0.0,  5.25,6.45, 1.45,1.55 /

&EXIT ID='BottomExit', IOR = -2,
      FYI = 'Comment line',
      COUNT_ONLY=.FALSE. ,
      COLOR='BLUE',
      XYZ = 44.0, 0.5, 1.50,
      XB = 43.25,44.75, 0.00,0.00, 1.45,1.55 / 

&EXIT ID='RightExit', IOR = +1,
      FYI = 'Comment line',
      COUNT_ONLY=.FALSE. , COLOR='RED',
      XYZ = 49.5, 25.85, 1.50,
      XB =  50.0, 50.0,  25.25,26.45, 1.45,1.55 / 

&EXIT ID='TopExit', IOR = +2,
      FYI = 'Comment line',
      COUNT_ONLY=.FALSE. ,
      COLOR='GREEN',
      XYZ = 3.85, 39.5, 1.50,
      XB = 3.25,4.45,  40.00, 40.00, 1.45,1.55 / 

=======================================================
============= EVAC GEOMETRY ENDS ======================
=======================================================

=======================================================
========== EVAC HUMAN PROPERTIES STARTS ===============
=======================================================

&PERS ID='Adult',
      FYI='Male+Female Diameter and velocity',
      DEFAULT_PROPERTIES='Adult',
      PRE_EVAC_DIST=1,PRE_MEAN=1.0,PRE_LOW=0.50,PRE_HIGH=1.5,
      DET_EVAC_DIST=0,DET_MEAN=1.0,
      NOT_RANDOM = .TRUE., EVAC_FDS6=.TRUE.,
      COLOR_METHOD = 0, AVATAR_COLOR='BLUE',
      OUTPUT_SPEED=.TRUE., HUMAN_SMOKE_HEIGHT=1.60,
      FED_DOOR_CRIT= -100.0, TDET_SMOKE_DENS= 1.0 /

&PERS ID='Male',
      FYI='Male Diameter and velocity',
      DEFAULT_PROPERTIES='Male',
      AVATAR_COLOR='BLUE',
      DET_EVAC_DIST=0, DET_MEAN=0.0,
      PRE_EVAC_DIST=1,PRE_MEAN=3.0,PRE_LOW=2.00,PRE_HIGH=4.0 /

&PERS ID='Female',
      FYI='Simulex Female Diameter',
      DEFAULT_PROPERTIES='Female',
      AVATAR_COLOR='BLUE',
      PRE_MEAN=1.0,PRE_LOW=0.50,PRE_HIGH=1.5,
      PRE_EVAC_DIST=1,PRE_MEAN=3.0,PRE_LOW=2.00,PRE_HIGH=4.0 /

&PERS ID='Child',
      FYI='Simulex Child Diameter',
      DEFAULT_PROPERTIES='Child',
      AVATAR_COLOR='BLUE',
      PRE_MEAN=1.0,PRE_LOW=0.50,PRE_HIGH=1.5,
      PRE_EVAC_DIST=1,PRE_MEAN=3.0,PRE_LOW=2.00,PRE_HIGH=4.0 /

&PERS ID='Elderly',
      FYI='Elderly Diameter and velocity',
      DEFAULT_PROPERTIES='Elderly',
      AVATAR_COLOR='BLUE',
      PRE_MEAN=1.0,PRE_LOW=0.50,PRE_HIGH=1.5,
      PRE_EVAC_DIST=1,PRE_MEAN=3.0,PRE_LOW=2.00,PRE_HIGH=4.0 /

&EVHO ID= 'EvHo_Fire',
      FYI= 'Do not put humans on top of the fire',
      XB= 30.0,33.0, 0.0,4.0, 1.5,1.5 /

&EVAC ID = 'EVAC1st', 
      NUMBER_INITIAL_PERSONS = 100,
      XB = 1.0,49.0,  1.0,39.0, 1.5,1.5
      AVATAR_COLOR = 'YELLOW',
      KNOWN_DOOR_NAMES = 'BottomExit','TopExit','LeftExit','RightExit',
      KNOWN_DOOR_PROBS = 1.0,1.0,0.0,0.0,
      PERS_ID = 'Adult' / 

=======================================================
========== EVAC HUMAN PROPERTIES ENDS =================
=======================================================

=======================================================
=============== OUTPUT FILES STARTS ===================
=======================================================

&SLCF PBZ= 1.5, QUANTITY='VELOCITY', VECTOR=.TRUE., EVACUATION=.TRUE. / 

 Next lines are ordianry Fds fire output
&SLCF PBZ= 1.500, QUANTITY='VISIBILITY' / 
 SLCF PBZ= 1.500, QUANTITY='extinction coefficient' / 
 SLCF PBZ= 1.500, QUANTITY='soot volume fraction' / 
 SLCF PBZ= 1.500, QUANTITY='soot density' / 

=======================================================
=============== OUTPUT FILES ENDS =====================
=======================================================
