&HEAD CHID='geom_test',TITLE='geometry test case SVN $Revision$' /

&MESH IJK=32,32,32, XB=0.0,16,0.0,16,0.0,16 /

&MISC HRRPUV_MAX_SMV=1300.0 /

&DUMP NFRAMES=400 DT_PL3D=8.0, DT_SL3D=0.1 /

&INIT XB=0.2,1.4,0.2,1.4,0.5,2.2  TEMPERATURE=600.0 /

&TIME T_END=40. /  Total simulation time


&SURF ID='TEST1', RGB=200,20,20 /
&SURF ID='TEST2', RGB=20,20,200 /

&OBST XB=0.0,1.0,0.0,1.0,0.0,1.0,SURF_ID='TEST1' /

&VENT XB= 0,16, 0, 0, 0,16,SURF_ID='OPEN'/
&VENT XB=16,16, 0,16, 0,16,SURF_ID='OPEN'/
&VENT XB= 0,16,16,16, 0,16,SURF_ID='OPEN'/
&VENT XB= 0, 0, 0,16, 0,16,SURF_ID='OPEN'/
&VENT XB= 0,16, 0,16,16,16,SURF_ID='OPEN'/



&TAIL /
