&HEAD CHID='tree_test2', TITLE='Test for showing tree objects' /

&MESH IJK=10,10,10, XB=0.0,1.0,0.0,1.0,0.0,1.0 /
&MISC HUMIDITY=0., Y_O2_INFTY = 0.01/
&TIME T_END=10., DT=0.01, WALL_INCREMENT=1 / 

&VENT XB=0.0,0.0,0.0,1.0,0.0,1.0, SURF_ID='OPEN'/
&VENT XB=1.0,1.0,0.0,1.0,0.0,1.0, SURF_ID='OPEN'/
&VENT XB=0.0,1.0,0.0,0.0,0.0,1.0, SURF_ID='OPEN'/
&VENT XB=0.0,1.0,1.0,1.0,0.0,1.0, SURF_ID='OPEN'/
&VENT XB=0.0,1.0,0.0,1.0,1.0,1.0, SURF_ID='OPEN'/

&REAC FUEL = 'GLUCOSE'
      C = 6. 
      H = 12. 
      O = 6.  /

&SPEC ID='WATER VAPOR' /

&SURF ID='HOT WALL', TMP_FRONT=1000., DEFAULT=.TRUE. /

&SURF ID                        = 'wet vegetation'
      MATL_ID(1,1:2)            = 'PINE','MOISTURE'
      MATL_MASS_FRACTION(1,1:2) = 0.8,0.2
      THICKNESS                 = 0.00025
      LENGTH                    = 0.1
      GEOMETRY                  = 'CYLINDRICAL' /
      
&MATL ID = 'PINE'
      DENSITY = 500.
      CONDUCTIVITY = 0.1
      SPECIFIC_HEAT= 1.0
      N_REACTIONS = 1
      REFERENCE_TEMPERATURE = 300.
      NU_MATL = 0.2
      NU_SPEC = 0.8
      SPEC_ID = 'GLUCOSE'
      HEAT_OF_REACTION= 1000
      MATL_ID  = 'CHAR' /
 
&MATL ID = 'MOISTURE'
      DENSITY = 1000.
      CONDUCTIVITY = 0.1
      SPECIFIC_HEAT= 4.184
      N_REACTIONS = 1
      REFERENCE_TEMPERATURE = 100.
      NU_SPEC = 1.0
      SPEC_ID = 'WATER VAPOR'
      HEAT_OF_REACTION= 2500. /

&MATL ID = 'CHAR'
      DENSITY  = 200.
      CONDUCTIVITY = 1.0
      SPECIFIC_HEAT = 1.6 /

&PART ID='pine needles', SAMPLING_FACTOR=1, SURF_ID='wet vegetation', PROP_ID='wood image'
      QUANTITIES='PARTICLE TEMPERATURE','PARTICLE MASS','PARTICLE DIAMETER', STATIC=.TRUE. /

&INIT PART_ID='pine needles', XB=0.,1.,0.,1.,0.,0.01, N_PARTICLES=10, MASS_PER_VOLUME=1.  /

&PROP ID='wood image', SMOKEVIEW_ID='CANOPY', SMOKEVIEW_PARAMETERS='CANOPY_D=0.1','CANOPY_H=0.4' /

&DUMP MASS_FILE=.TRUE. /

&DEVC XB=0.,1.,0.,1.,0.,1., QUANTITY='DENSITY', ID='fuel gas mass', STATISTICS='VOLUME INTEGRAL', SPEC_ID='GLUCOSE' /
&DEVC XB=0.,1.,0.,1.,0.,1., QUANTITY='DENSITY', ID='water vapor mass', STATISTICS='VOLUME INTEGRAL', SPEC_ID='WATER VAPOR' /
&DEVC XB=0.,1.,0.,1.,0.,1., QUANTITY='MPUV', PART_ID='pine needles', ID='solid mass', STATISTICS='VOLUME INTEGRAL'  /

&SLCF PBY=0.5, QUANTITY='MASS FRACTION', SPEC_ID='WATER VAPOR' /
&SLCF PBY=0.5, QUANTITY='RELATIVE HUMIDITY' /

&TAIL /
