&HEAD CHID='tri_cube_cut_cell_test_10', TITLE='test of cut cell area calculation' /

&MESH IJK=3,3,3, XB=-1,2,-1,2,-1,2 /
  
&TIME T_END=1 /

&DUMP CUTCELL_DATA_FILE=.TRUE. /

&MISC IMMERSED_BOUNDARY_METHOD=0 /

&SURF ID='face', COLOR='BLACK' /

! The following are 12 examples to test the cut-cell algorithm

! example 10
&VERT X=0.3,-0.1,0/
&VERT X=-0.1,0,0.5/
&VERT X=0.1,1.1,1.1/

! Facets with vertices, N(3), ordered so that with right-hand rule
! the surface normal points toward the gas phase (out of the solid).

&FACE N=1,2,3, SURF_ID='face' /

&SLCF XB=0,3,0,3,0,3, QUANTITY='P MASK', CELL_CENTERED=.TRUE./

&TAIL /
