&HEAD CHID='tri_cube_cut_cell_test_12', TITLE='test of cut cell area calculation' /

&MESH IJK=3,3,3, XB=-1,2,-1,2,-1,2 /
  
&TIME T_END=1 /

&MISC IMMERSED_BOUNDARY_METHOD=0 /

&SURF ID='face', COLOR='BLACK' /

&MISC CUTCELL_TEST=0 /
! The following are 12 examples to test the cut-cell algorithm

! example 12
&VERT X=1.25,-0.25,0.5 /
&VERT X=-0.25,0.5,1.25 /
&VERT X=0.5,1.25,-0.25 /

! Facets with vertices, N(3), ordered so that with right-hand rule
! the surface normal points toward the gas phase (out of the solid).

&FACE N=1,2,3, SURF_ID='face' /

&SLCF XB=0,3,0,3,0,3, QUANTITY='P MASK', CELL_CENTERED=.TRUE./

&TAIL /
