&HEAD CHID='Arch_demo', TITLE='Demo of Abaqus >> Matlab freeBoundary, created by Arch_demo.m' /
  
&MESH IJK=32,32,32, XB=-1.,1.,-1.,1.,-0.2,1/
  
&TIME T_END=60./
  
&MISC IMMERSED_BOUNDARY_METHOD=1 /

&DUMP CUTCELL_DATA_FILE=.TRUE. /
  
&SURF ID='hot vent', COLOR='RED', CONVECTIVE_HEAT_FLUX=10./
&PART ID='p1', SURF_ID='arch surf', STATIC=.TRUE., PROP_ID='ball', QUANTITIES(1)='PARTICLE TEMPERATURE' /
&PROP ID='ball', SMOKEVIEW_ID='SPHERE', SMOKEVIEW_PARAMETERS(1)='D=0.01' /
&SURF ID='arch surf', COLOR='BLUE', EMISSIVITY=0.95, RADIUS=0.005, GEOMETRY='SPHERICAL' /

&GEOM ID='arch', SHAPE='COMPLEX', SURF_ID='arch surf'
      DT_GEOC=1., GEOC_FILENAME='Arch_demo_01.gc'
      DT_BNDC=1., BNDC_FILENAME='Arch_demo_01.bc'/
  
&VENT MB='XMIN', SURF_ID='OPEN'/
&VENT MB='XMAX', SURF_ID='OPEN'/
&VENT MB='YMIN', SURF_ID='OPEN'/
&VENT MB='YMAX', SURF_ID='OPEN'/
&VENT MB='ZMAX', SURF_ID='OPEN'/
&VENT XB=-.2,.2,-.2,.2,-0.2,-0.2, SURF_ID='hot vent'/
  
&MATL ID='my solid', DENSITY=2700., CONDUCTIVITY=120., SPECIFIC_HEAT=.903 /
  
&SLCF PBY=0, QUANTITY='TEMPERATURE', VECTOR=.TRUE. /
&SLCF PBX=0, QUANTITY='TEMPERATURE', VECTOR=.TRUE. /
  
&BNDE QUANTITY='WALL TEMPERATURE' /
  
&VERT X=0.17923,0.06,0.55161 /
&VERT X=0.17923,0.01,0.55161 /
&VERT X=0,0.01,0.58 /
&VERT X=0,0.06,0.58 /
&VERT X=0.18541,0.06,0.57063 /
&VERT X=0,0.06,0.6 /
&VERT X=0.18541,-0.06,0.57063 /
&VERT X=0,0,0.6 /
&VERT X=0,-0.06,0.6 /
&VERT X=0.17923,-0.06,0.55161 /
&VERT X=0,-0.06,0.58 /
&VERT X=0.17923,-0.01,0.55161 /
&VERT X=0,-0.01,0.58 /
&VERT X=0.12979,-0.01,0.39944 /
&VERT X=0,-0.01,0.42 /
&VERT X=0.12979,-0.06,0.39944 /
&VERT X=0,-0.06,0.42 /
&VERT X=0.12361,-0.06,0.38042 /
&VERT X=0,-0.06,0.4 /
&VERT X=0.12361,0.06,0.38042 /
&VERT X=0,0.06,0.4 /
&VERT X=0.12979,0.01,0.39944 /
&VERT X=0,0.01,0.42 /
&VERT X=0,0.06,0.42 /
&VERT X=0.12979,0.06,0.39944 /
&VERT X=-0.12361,-0.06,0.38042 /
&VERT X=-0.12979,-0.06,0.39944 /
&VERT X=-0.42,-0.06,0 /
&VERT X=-0.4,-0.06,0 /
&VERT X=-0.12979,-0.01,0.39944 /
&VERT X=-0.42,-0.01,0 /
&VERT X=-0.18541,-0.06,0.57063 /
&VERT X=-0.18541,0.06,0.57063 /
&VERT X=-0.6,0.06,0 /
&VERT X=-0.6,-0.06,0 /
&VERT X=-0.17923,0.06,0.55161 /
&VERT X=-0.58,0.06,0 /
&VERT X=-0.17923,0.01,0.55161 /
&VERT X=-0.58,0.01,0 /
&VERT X=-0.12979,0.01,0.39944 /
&VERT X=-0.42,0.01,0 /
&VERT X=-0.12979,0.06,0.39944 /
&VERT X=-0.42,0.06,0 /
&VERT X=-0.12361,0.06,0.38042 /
&VERT X=-0.4,0.06,0 /
&VERT X=-0.17923,-0.01,0.55161 /
&VERT X=-0.58,-0.01,0 /
&VERT X=-0.58,-0.06,0 /
&VERT X=-0.17923,-0.06,0.55161 /
&VERT X=0.58,0.06,0 /
&VERT X=0.58,0.01,0 /
&VERT X=0.6,0.06,0 /
&VERT X=0.6,-0.06,0 /
&VERT X=0.58,-0.06,0 /
&VERT X=0.58,-0.01,0 /
&VERT X=0.42,-0.01,0 /
&VERT X=0.42,-0.06,0 /
&VERT X=0.4,-0.06,0 /
&VERT X=0.4,0.06,0 /
&VERT X=0.42,0.06,0 /
&VERT X=0.42,0.01,0 /
&VERT X=0.17923,0.043333,0.55161 /
&VERT X=0.17923,0.026667,0.55161 /
&VERT X=0.15987,0.01,0.55753 /
&VERT X=0.14031,0.01,0.56277 /
&VERT X=0.12059,0.01,0.56733 /
&VERT X=0.10072,0.01,0.57119 /
&VERT X=0.08072,0.01,0.57436 /
&VERT X=0.060627,0.01,0.57682 /
&VERT X=0.040459,0.01,0.57859 /
&VERT X=0.020242,0.01,0.57965 /
&VERT X=0,0.026667,0.58 /
&VERT X=0,0.043333,0.58 /
&VERT X=0.020242,0.06,0.57965 /
&VERT X=0.040459,0.06,0.57859 /
&VERT X=0.060627,0.06,0.57682 /
&VERT X=0.08072,0.06,0.57436 /
&VERT X=0.10072,0.06,0.57119 /
&VERT X=0.12059,0.06,0.56733 /
&VERT X=0.14031,0.06,0.56277 /
&VERT X=0.15987,0.06,0.55753 /
&VERT X=0.02094,0.06,0.59963 /
&VERT X=0.041854,0.06,0.59854 /
&VERT X=0.062717,0.06,0.59671 /
&VERT X=0.083504,0.06,0.59416 /
&VERT X=0.10419,0.06,0.59088 /
&VERT X=0.12475,0.06,0.58689 /
&VERT X=0.14515,0.06,0.58218 /
&VERT X=0.16538,0.06,0.57676 /
&VERT X=0.18541,-0.04,0.57063 /
&VERT X=0.18541,-0.02,0.57063 /
&VERT X=0.18541,0,0.57063 /
&VERT X=0.18541,0.02,0.57063 /
&VERT X=0.18541,0.04,0.57063 /
&VERT X=0,-0.02,0.6 /
&VERT X=0,-0.04,0.6 /
&VERT X=0,0.04,0.6 /
&VERT X=0,0.02,0.6 /
&VERT X=0.02094,-0.06,0.59963 /
&VERT X=0.041854,-0.06,0.59854 /
&VERT X=0.062717,-0.06,0.59671 /
&VERT X=0.083504,-0.06,0.59416 /
&VERT X=0.10419,-0.06,0.59088 /
&VERT X=0.12475,-0.06,0.58689 /
&VERT X=0.14515,-0.06,0.58218 /
&VERT X=0.16538,-0.06,0.57676 /
&VERT X=0.020242,-0.06,0.57965 /
&VERT X=0.040459,-0.06,0.57859 /
&VERT X=0.060627,-0.06,0.57682 /
&VERT X=0.08072,-0.06,0.57436 /
&VERT X=0.10072,-0.06,0.57119 /
&VERT X=0.12059,-0.06,0.56733 /
&VERT X=0.14031,-0.06,0.56277 /
&VERT X=0.15987,-0.06,0.55753 /
&VERT X=0.17923,-0.035,0.55161 /
&VERT X=0,-0.035,0.58 /
&VERT X=0.020242,-0.01,0.57965 /
&VERT X=0.040459,-0.01,0.57859 /
&VERT X=0.060627,-0.01,0.57682 /
&VERT X=0.08072,-0.01,0.57436 /
&VERT X=0.10072,-0.01,0.57119 /
&VERT X=0.12059,-0.01,0.56733 /
&VERT X=0.14031,-0.01,0.56277 /
&VERT X=0.15987,-0.01,0.55753 /
&VERT X=0.13597,-0.01,0.41846 /
&VERT X=0.14215,-0.01,0.43749 /
&VERT X=0.14833,-0.01,0.45651 /
&VERT X=0.15451,-0.01,0.47553 /
&VERT X=0.16069,-0.01,0.49455 /
&VERT X=0.16687,-0.01,0.51357 /
&VERT X=0.17305,-0.01,0.53259 /
&VERT X=0,-0.01,0.56 /
&VERT X=0,-0.01,0.54 /
&VERT X=0,-0.01,0.52 /
&VERT X=0,-0.01,0.5 /
&VERT X=0,-0.01,0.48 /
&VERT X=0,-0.01,0.46 /
&VERT X=0,-0.01,0.44 /
&VERT X=0.014658,-0.01,0.41974 /
&VERT X=0.029298,-0.01,0.41898 /
&VERT X=0.043902,-0.01,0.4177 /
&VERT X=0.058453,-0.01,0.41591 /
&VERT X=0.072932,-0.01,0.41362 /
&VERT X=0.087323,-0.01,0.41082 /
&VERT X=0.10161,-0.01,0.40752 /
&VERT X=0.11577,-0.01,0.40373 /
&VERT X=0.12979,-0.035,0.39944 /
&VERT X=0,-0.035,0.42 /
&VERT X=0.014658,-0.06,0.41974 /
&VERT X=0.029298,-0.06,0.41898 /
&VERT X=0.043902,-0.06,0.4177 /
&VERT X=0.058453,-0.06,0.41591 /
&VERT X=0.072932,-0.06,0.41362 /
&VERT X=0.087323,-0.06,0.41082 /
&VERT X=0.10161,-0.06,0.40752 /
&VERT X=0.11577,-0.06,0.40373 /
&VERT X=0.01396,-0.06,0.39976 /
&VERT X=0.027903,-0.06,0.39903 /
&VERT X=0.041811,-0.06,0.39781 /
&VERT X=0.055669,-0.06,0.39611 /
&VERT X=0.069459,-0.06,0.39392 /
&VERT X=0.083165,-0.06,0.39126 /
&VERT X=0.096769,-0.06,0.38812 /
&VERT X=0.11025,-0.06,0.3845 /
&VERT X=0.12361,0.04,0.38042 /
&VERT X=0.12361,0.02,0.38042 /
&VERT X=0.12361,0,0.38042 /
&VERT X=0.12361,-0.02,0.38042 /
&VERT X=0.12361,-0.04,0.38042 /
&VERT X=0,-0.04,0.4 /
&VERT X=0,-0.02,0.4 /
&VERT X=0,0,0.4 /
&VERT X=0,0.02,0.4 /
&VERT X=0,0.04,0.4 /
&VERT X=0.01396,0.06,0.39976 /
&VERT X=0.027903,0.06,0.39903 /
&VERT X=0.041811,0.06,0.39781 /
&VERT X=0.055669,0.06,0.39611 /
&VERT X=0.069459,0.06,0.39392 /
&VERT X=0.083165,0.06,0.39126 /
&VERT X=0.096769,0.06,0.38812 /
&VERT X=0.11025,0.06,0.3845 /
&VERT X=0.17305,0.01,0.53259 /
&VERT X=0.16687,0.01,0.51357 /
&VERT X=0.16069,0.01,0.49455 /
&VERT X=0.15451,0.01,0.47553 /
&VERT X=0.14833,0.01,0.45651 /
&VERT X=0.14215,0.01,0.43749 /
&VERT X=0.13597,0.01,0.41846 /
&VERT X=0.11577,0.01,0.40373 /
&VERT X=0.10161,0.01,0.40752 /
&VERT X=0.087323,0.01,0.41082 /
&VERT X=0.072932,0.01,0.41362 /
&VERT X=0.058453,0.01,0.41591 /
&VERT X=0.043902,0.01,0.4177 /
&VERT X=0.029298,0.01,0.41898 /
&VERT X=0.014658,0.01,0.41974 /
&VERT X=0,0.01,0.44 /
&VERT X=0,0.01,0.46 /
&VERT X=0,0.01,0.48 /
&VERT X=0,0.01,0.5 /
&VERT X=0,0.01,0.52 /
&VERT X=0,0.01,0.54 /
&VERT X=0,0.01,0.56 /
&VERT X=0,0.043333,0.42 /
&VERT X=0,0.026667,0.42 /
&VERT X=0.014658,0.06,0.41974 /
&VERT X=0.029298,0.06,0.41898 /
&VERT X=0.043902,0.06,0.4177 /
&VERT X=0.058453,0.06,0.41591 /
&VERT X=0.072932,0.06,0.41362 /
&VERT X=0.087323,0.06,0.41082 /
&VERT X=0.10161,0.06,0.40752 /
&VERT X=0.11577,0.06,0.40373 /
&VERT X=0.12979,0.026667,0.39944 /
&VERT X=0.12979,0.043333,0.39944 /
&VERT X=-0.14697,-0.06,0.39345 /
&VERT X=-0.16387,-0.06,0.38671 /
&VERT X=-0.18047,-0.06,0.37925 /
&VERT X=-0.19673,-0.06,0.37108 /
&VERT X=-0.21262,-0.06,0.3622 /
&VERT X=-0.22811,-0.06,0.35265 /
&VERT X=-0.24317,-0.06,0.34244 /
&VERT X=-0.25778,-0.06,0.33159 /
&VERT X=-0.2719,-0.06,0.32011 /
&VERT X=-0.28551,-0.06,0.30803 /
&VERT X=-0.29859,-0.06,0.29537 /
&VERT X=-0.3111,-0.06,0.28216 /
&VERT X=-0.32303,-0.06,0.26842 /
&VERT X=-0.33436,-0.06,0.25417 /
&VERT X=-0.34506,-0.06,0.23945 /
&VERT X=-0.3551,-0.06,0.22428 /
&VERT X=-0.36449,-0.06,0.20869 /
&VERT X=-0.37318,-0.06,0.1927 /
&VERT X=-0.38118,-0.06,0.17635 /
&VERT X=-0.38846,-0.06,0.15968 /
&VERT X=-0.39502,-0.06,0.1427 /
&VERT X=-0.40083,-0.06,0.12545 /
&VERT X=-0.40588,-0.06,0.10797 /
&VERT X=-0.41018,-0.06,0.090288 /
&VERT X=-0.41371,-0.06,0.072434 /
&VERT X=-0.41646,-0.06,0.054445 /
&VERT X=-0.41842,-0.06,0.036354 /
&VERT X=-0.41961,-0.06,0.018194 /
&VERT X=-0.39962,-0.06,0.017328 /
&VERT X=-0.3985,-0.06,0.034622 /
&VERT X=-0.39662,-0.06,0.051852 /
&VERT X=-0.39401,-0.06,0.068985 /
&VERT X=-0.39065,-0.06,0.085988 /
&VERT X=-0.38656,-0.06,0.10283 /
&VERT X=-0.38174,-0.06,0.11948 /
&VERT X=-0.37621,-0.06,0.1359 /
&VERT X=-0.36997,-0.06,0.15207 /
&VERT X=-0.36303,-0.06,0.16796 /
&VERT X=-0.35541,-0.06,0.18352 /
&VERT X=-0.34713,-0.06,0.19875 /
&VERT X=-0.33819,-0.06,0.2136 /
&VERT X=-0.32862,-0.06,0.22805 /
&VERT X=-0.31844,-0.06,0.24207 /
&VERT X=-0.30765,-0.06,0.25564 /
&VERT X=-0.29629,-0.06,0.26872 /
&VERT X=-0.28437,-0.06,0.28131 /
&VERT X=-0.27192,-0.06,0.29336 /
&VERT X=-0.25895,-0.06,0.30486 /
&VERT X=-0.24551,-0.06,0.3158 /
&VERT X=-0.23159,-0.06,0.32613 /
&VERT X=-0.21725,-0.06,0.33586 /
&VERT X=-0.2025,-0.06,0.34496 /
&VERT X=-0.18736,-0.06,0.3534 /
&VERT X=-0.17188,-0.06,0.36119 /
&VERT X=-0.15607,-0.06,0.3683 /
&VERT X=-0.13997,-0.06,0.37471 /
&VERT X=-0.12979,-0.035,0.39944 /
&VERT X=-0.14697,-0.01,0.39345 /
&VERT X=-0.16387,-0.01,0.38671 /
&VERT X=-0.18047,-0.01,0.37925 /
&VERT X=-0.19673,-0.01,0.37108 /
&VERT X=-0.21262,-0.01,0.3622 /
&VERT X=-0.22811,-0.01,0.35265 /
&VERT X=-0.24317,-0.01,0.34244 /
&VERT X=-0.25778,-0.01,0.33159 /
&VERT X=-0.2719,-0.01,0.32011 /
&VERT X=-0.28551,-0.01,0.30803 /
&VERT X=-0.29859,-0.01,0.29537 /
&VERT X=-0.3111,-0.01,0.28216 /
&VERT X=-0.32303,-0.01,0.26842 /
&VERT X=-0.33436,-0.01,0.25417 /
&VERT X=-0.34506,-0.01,0.23945 /
&VERT X=-0.3551,-0.01,0.22428 /
&VERT X=-0.36449,-0.01,0.20869 /
&VERT X=-0.37318,-0.01,0.1927 /
&VERT X=-0.38118,-0.01,0.17635 /
&VERT X=-0.38846,-0.01,0.15968 /
&VERT X=-0.39502,-0.01,0.1427 /
&VERT X=-0.40083,-0.01,0.12545 /
&VERT X=-0.40588,-0.01,0.10797 /
&VERT X=-0.41018,-0.01,0.090288 /
&VERT X=-0.41371,-0.01,0.072434 /
&VERT X=-0.41646,-0.01,0.054445 /
&VERT X=-0.41842,-0.01,0.036354 /
&VERT X=-0.41961,-0.01,0.018194 /
&VERT X=-0.42,-0.035,0 /
&VERT X=-0.18541,-0.04,0.57063 /
&VERT X=-0.18541,-0.02,0.57063 /
&VERT X=-0.18541,0,0.57063 /
&VERT X=-0.18541,0.02,0.57063 /
&VERT X=-0.18541,0.04,0.57063 /
&VERT X=-0.20996,0.06,0.56207 /
&VERT X=-0.23411,0.06,0.55244 /
&VERT X=-0.25782,0.06,0.54178 /
&VERT X=-0.28105,0.06,0.53011 /
&VERT X=-0.30374,0.06,0.51744 /
&VERT X=-0.32587,0.06,0.50379 /
&VERT X=-0.34739,0.06,0.4892 /
&VERT X=-0.36826,0.06,0.47369 /
&VERT X=-0.38843,0.06,0.4573 /
&VERT X=-0.40788,0.06,0.44004 /
&VERT X=-0.42656,0.06,0.42196 /
&VERT X=-0.44443,0.06,0.40309 /
&VERT X=-0.46148,0.06,0.38346 /
&VERT X=-0.47766,0.06,0.3631 /
&VERT X=-0.49294,0.06,0.34207 /
&VERT X=-0.50729,0.06,0.3204 /
&VERT X=-0.5207,0.06,0.29812 /
&VERT X=-0.53312,0.06,0.27529 /
&VERT X=-0.54455,0.06,0.25193 /
&VERT X=-0.55495,0.06,0.22811 /
&VERT X=-0.56431,0.06,0.20385 /
&VERT X=-0.57261,0.06,0.17922 /
&VERT X=-0.57983,0.06,0.15424 /
&VERT X=-0.58597,0.06,0.12898 /
&VERT X=-0.59101,0.06,0.10348 /
&VERT X=-0.59494,0.06,0.077779 /
&VERT X=-0.59775,0.06,0.051934 /
&VERT X=-0.59944,0.06,0.025991 /
&VERT X=-0.6,0.04,0 /
&VERT X=-0.6,0.02,0 /
&VERT X=-0.6,0,0 /
&VERT X=-0.6,-0.02,0 /
&VERT X=-0.6,-0.04,0 /
&VERT X=-0.59944,-0.06,0.025991 /
&VERT X=-0.59775,-0.06,0.051934 /
&VERT X=-0.59494,-0.06,0.077779 /
&VERT X=-0.59101,-0.06,0.10348 /
&VERT X=-0.58597,-0.06,0.12898 /
&VERT X=-0.57983,-0.06,0.15424 /
&VERT X=-0.57261,-0.06,0.17922 /
&VERT X=-0.56431,-0.06,0.20385 /
&VERT X=-0.55495,-0.06,0.22811 /
&VERT X=-0.54455,-0.06,0.25193 /
&VERT X=-0.53312,-0.06,0.27529 /
&VERT X=-0.5207,-0.06,0.29812 /
&VERT X=-0.50729,-0.06,0.3204 /
&VERT X=-0.49294,-0.06,0.34207 /
&VERT X=-0.47766,-0.06,0.3631 /
&VERT X=-0.46148,-0.06,0.38346 /
&VERT X=-0.44443,-0.06,0.40309 /
&VERT X=-0.42656,-0.06,0.42196 /
&VERT X=-0.40788,-0.06,0.44004 /
&VERT X=-0.38843,-0.06,0.4573 /
&VERT X=-0.36826,-0.06,0.47369 /
&VERT X=-0.34739,-0.06,0.4892 /
&VERT X=-0.32587,-0.06,0.50379 /
&VERT X=-0.30374,-0.06,0.51744 /
&VERT X=-0.28105,-0.06,0.53011 /
&VERT X=-0.25782,-0.06,0.54178 /
&VERT X=-0.23411,-0.06,0.55244 /
&VERT X=-0.20996,-0.06,0.56207 /
&VERT X=-0.20296,0.06,0.54333 /
&VERT X=-0.2263,0.06,0.53403 /
&VERT X=-0.24922,0.06,0.52372 /
&VERT X=-0.27168,0.06,0.51244 /
&VERT X=-0.29362,0.06,0.50019 /
&VERT X=-0.31501,0.06,0.487 /
&VERT X=-0.33581,0.06,0.4729 /
&VERT X=-0.35598,0.06,0.4579 /
&VERT X=-0.37548,0.06,0.44205 /
&VERT X=-0.39428,0.06,0.42537 /
&VERT X=-0.41234,0.06,0.40789 /
&VERT X=-0.42962,0.06,0.38965 /
&VERT X=-0.4461,0.06,0.37067 /
&VERT X=-0.46173,0.06,0.351 /
&VERT X=-0.47651,0.06,0.33067 /
&VERT X=-0.49038,0.06,0.30972 /
&VERT X=-0.50334,0.06,0.28818 /
&VERT X=-0.51535,0.06,0.26611 /
&VERT X=-0.52639,0.06,0.24354 /
&VERT X=-0.53645,0.06,0.2205 /
&VERT X=-0.5455,0.06,0.19706 /
&VERT X=-0.55352,0.06,0.17324 /
&VERT X=-0.56051,0.06,0.1491 /
&VERT X=-0.56644,0.06,0.12468 /
&VERT X=-0.57131,0.06,0.10003 /
&VERT X=-0.57511,0.06,0.075186 /
&VERT X=-0.57782,0.06,0.050203 /
&VERT X=-0.57946,0.06,0.025125 /
&VERT X=-0.17923,0.043333,0.55161 /
&VERT X=-0.17923,0.026667,0.55161 /
&VERT X=-0.20296,0.01,0.54333 /
&VERT X=-0.2263,0.01,0.53403 /
&VERT X=-0.24922,0.01,0.52372 /
&VERT X=-0.27168,0.01,0.51244 /
&VERT X=-0.29362,0.01,0.50019 /
&VERT X=-0.31501,0.01,0.487 /
&VERT X=-0.33581,0.01,0.4729 /
&VERT X=-0.35598,0.01,0.4579 /
&VERT X=-0.37548,0.01,0.44205 /
&VERT X=-0.39428,0.01,0.42537 /
&VERT X=-0.41234,0.01,0.40789 /
&VERT X=-0.42962,0.01,0.38965 /
&VERT X=-0.4461,0.01,0.37067 /
&VERT X=-0.46173,0.01,0.351 /
&VERT X=-0.47651,0.01,0.33067 /
&VERT X=-0.49038,0.01,0.30972 /
&VERT X=-0.50334,0.01,0.28818 /
&VERT X=-0.51535,0.01,0.26611 /
&VERT X=-0.52639,0.01,0.24354 /
&VERT X=-0.53645,0.01,0.2205 /
&VERT X=-0.5455,0.01,0.19706 /
&VERT X=-0.55352,0.01,0.17324 /
&VERT X=-0.56051,0.01,0.1491 /
&VERT X=-0.56644,0.01,0.12468 /
&VERT X=-0.57131,0.01,0.10003 /
&VERT X=-0.57511,0.01,0.075186 /
&VERT X=-0.57782,0.01,0.050203 /
&VERT X=-0.57946,0.01,0.025125 /
&VERT X=-0.58,0.026667,0 /
&VERT X=-0.58,0.043333,0 /
&VERT X=-0.17305,0.01,0.53259 /
&VERT X=-0.16687,0.01,0.51357 /
&VERT X=-0.16069,0.01,0.49455 /
&VERT X=-0.15451,0.01,0.47553 /
&VERT X=-0.14833,0.01,0.45651 /
&VERT X=-0.14215,0.01,0.43749 /
&VERT X=-0.13597,0.01,0.41846 /
&VERT X=-0.14697,0.01,0.39345 /
&VERT X=-0.16387,0.01,0.38671 /
&VERT X=-0.18047,0.01,0.37925 /
&VERT X=-0.19673,0.01,0.37108 /
&VERT X=-0.21262,0.01,0.3622 /
&VERT X=-0.22811,0.01,0.35265 /
&VERT X=-0.24317,0.01,0.34244 /
&VERT X=-0.25778,0.01,0.33159 /
&VERT X=-0.2719,0.01,0.32011 /
&VERT X=-0.28551,0.01,0.30803 /
&VERT X=-0.29859,0.01,0.29537 /
&VERT X=-0.3111,0.01,0.28216 /
&VERT X=-0.32303,0.01,0.26842 /
&VERT X=-0.33436,0.01,0.25417 /
&VERT X=-0.34506,0.01,0.23945 /
&VERT X=-0.3551,0.01,0.22428 /
&VERT X=-0.36449,0.01,0.20869 /
&VERT X=-0.37318,0.01,0.1927 /
&VERT X=-0.38118,0.01,0.17635 /
&VERT X=-0.38846,0.01,0.15968 /
&VERT X=-0.39502,0.01,0.1427 /
&VERT X=-0.40083,0.01,0.12545 /
&VERT X=-0.40588,0.01,0.10797 /
&VERT X=-0.41018,0.01,0.090288 /
&VERT X=-0.41371,0.01,0.072434 /
&VERT X=-0.41646,0.01,0.054445 /
&VERT X=-0.41842,0.01,0.036354 /
&VERT X=-0.41961,0.01,0.018194 /
&VERT X=-0.44,0.01,0 /
&VERT X=-0.46,0.01,0 /
&VERT X=-0.48,0.01,0 /
&VERT X=-0.5,0.01,0 /
&VERT X=-0.52,0.01,0 /
&VERT X=-0.54,0.01,0 /
&VERT X=-0.56,0.01,0 /
&VERT X=-0.12979,0.026667,0.39944 /
&VERT X=-0.12979,0.043333,0.39944 /
&VERT X=-0.14697,0.06,0.39345 /
&VERT X=-0.16387,0.06,0.38671 /
&VERT X=-0.18047,0.06,0.37925 /
&VERT X=-0.19673,0.06,0.37108 /
&VERT X=-0.21262,0.06,0.3622 /
&VERT X=-0.22811,0.06,0.35265 /
&VERT X=-0.24317,0.06,0.34244 /
&VERT X=-0.25778,0.06,0.33159 /
&VERT X=-0.2719,0.06,0.32011 /
&VERT X=-0.28551,0.06,0.30803 /
&VERT X=-0.29859,0.06,0.29537 /
&VERT X=-0.3111,0.06,0.28216 /
&VERT X=-0.32303,0.06,0.26842 /
&VERT X=-0.33436,0.06,0.25417 /
&VERT X=-0.34506,0.06,0.23945 /
&VERT X=-0.3551,0.06,0.22428 /
&VERT X=-0.36449,0.06,0.20869 /
&VERT X=-0.37318,0.06,0.1927 /
&VERT X=-0.38118,0.06,0.17635 /
&VERT X=-0.38846,0.06,0.15968 /
&VERT X=-0.39502,0.06,0.1427 /
&VERT X=-0.40083,0.06,0.12545 /
&VERT X=-0.40588,0.06,0.10797 /
&VERT X=-0.41018,0.06,0.090288 /
&VERT X=-0.41371,0.06,0.072434 /
&VERT X=-0.41646,0.06,0.054445 /
&VERT X=-0.41842,0.06,0.036354 /
&VERT X=-0.41961,0.06,0.018194 /
&VERT X=-0.42,0.043333,0 /
&VERT X=-0.42,0.026667,0 /
&VERT X=-0.13997,0.06,0.37471 /
&VERT X=-0.15607,0.06,0.3683 /
&VERT X=-0.17188,0.06,0.36119 /
&VERT X=-0.18736,0.06,0.3534 /
&VERT X=-0.2025,0.06,0.34496 /
&VERT X=-0.21725,0.06,0.33586 /
&VERT X=-0.23159,0.06,0.32613 /
&VERT X=-0.24551,0.06,0.3158 /
&VERT X=-0.25895,0.06,0.30486 /
&VERT X=-0.27192,0.06,0.29336 /
&VERT X=-0.28437,0.06,0.28131 /
&VERT X=-0.29629,0.06,0.26872 /
&VERT X=-0.30765,0.06,0.25564 /
&VERT X=-0.31844,0.06,0.24207 /
&VERT X=-0.32862,0.06,0.22805 /
&VERT X=-0.33819,0.06,0.2136 /
&VERT X=-0.34713,0.06,0.19875 /
&VERT X=-0.35541,0.06,0.18352 /
&VERT X=-0.36303,0.06,0.16796 /
&VERT X=-0.36997,0.06,0.15207 /
&VERT X=-0.37621,0.06,0.1359 /
&VERT X=-0.38174,0.06,0.11948 /
&VERT X=-0.38656,0.06,0.10283 /
&VERT X=-0.39065,0.06,0.085988 /
&VERT X=-0.39401,0.06,0.068985 /
&VERT X=-0.39662,0.06,0.051852 /
&VERT X=-0.3985,0.06,0.034622 /
&VERT X=-0.39962,0.06,0.017328 /
&VERT X=-0.12361,0.04,0.38042 /
&VERT X=-0.12361,0.02,0.38042 /
&VERT X=-0.12361,0,0.38042 /
&VERT X=-0.12361,-0.02,0.38042 /
&VERT X=-0.12361,-0.04,0.38042 /
&VERT X=-0.4,-0.04,0 /
&VERT X=-0.4,-0.02,0 /
&VERT X=-0.4,0,0 /
&VERT X=-0.4,0.02,0 /
&VERT X=-0.4,0.04,0 /
&VERT X=-0.13597,-0.01,0.41846 /
&VERT X=-0.14215,-0.01,0.43749 /
&VERT X=-0.14833,-0.01,0.45651 /
&VERT X=-0.15451,-0.01,0.47553 /
&VERT X=-0.16069,-0.01,0.49455 /
&VERT X=-0.16687,-0.01,0.51357 /
&VERT X=-0.17305,-0.01,0.53259 /
&VERT X=-0.20296,-0.01,0.54333 /
&VERT X=-0.2263,-0.01,0.53403 /
&VERT X=-0.24922,-0.01,0.52372 /
&VERT X=-0.27168,-0.01,0.51244 /
&VERT X=-0.29362,-0.01,0.50019 /
&VERT X=-0.31501,-0.01,0.487 /
&VERT X=-0.33581,-0.01,0.4729 /
&VERT X=-0.35598,-0.01,0.4579 /
&VERT X=-0.37548,-0.01,0.44205 /
&VERT X=-0.39428,-0.01,0.42537 /
&VERT X=-0.41234,-0.01,0.40789 /
&VERT X=-0.42962,-0.01,0.38965 /
&VERT X=-0.4461,-0.01,0.37067 /
&VERT X=-0.46173,-0.01,0.351 /
&VERT X=-0.47651,-0.01,0.33067 /
&VERT X=-0.49038,-0.01,0.30972 /
&VERT X=-0.50334,-0.01,0.28818 /
&VERT X=-0.51535,-0.01,0.26611 /
&VERT X=-0.52639,-0.01,0.24354 /
&VERT X=-0.53645,-0.01,0.2205 /
&VERT X=-0.5455,-0.01,0.19706 /
&VERT X=-0.55352,-0.01,0.17324 /
&VERT X=-0.56051,-0.01,0.1491 /
&VERT X=-0.56644,-0.01,0.12468 /
&VERT X=-0.57131,-0.01,0.10003 /
&VERT X=-0.57511,-0.01,0.075186 /
&VERT X=-0.57782,-0.01,0.050203 /
&VERT X=-0.57946,-0.01,0.025125 /
&VERT X=-0.56,-0.01,0 /
&VERT X=-0.54,-0.01,0 /
&VERT X=-0.52,-0.01,0 /
&VERT X=-0.5,-0.01,0 /
&VERT X=-0.48,-0.01,0 /
&VERT X=-0.46,-0.01,0 /
&VERT X=-0.44,-0.01,0 /
&VERT X=-0.58,-0.035,0 /
&VERT X=-0.57946,-0.06,0.025125 /
&VERT X=-0.57782,-0.06,0.050203 /
&VERT X=-0.57511,-0.06,0.075186 /
&VERT X=-0.57131,-0.06,0.10003 /
&VERT X=-0.56644,-0.06,0.12468 /
&VERT X=-0.56051,-0.06,0.1491 /
&VERT X=-0.55352,-0.06,0.17324 /
&VERT X=-0.5455,-0.06,0.19706 /
&VERT X=-0.53645,-0.06,0.2205 /
&VERT X=-0.52639,-0.06,0.24354 /
&VERT X=-0.51535,-0.06,0.26611 /
&VERT X=-0.50334,-0.06,0.28818 /
&VERT X=-0.49038,-0.06,0.30972 /
&VERT X=-0.47651,-0.06,0.33067 /
&VERT X=-0.46173,-0.06,0.351 /
&VERT X=-0.4461,-0.06,0.37067 /
&VERT X=-0.42962,-0.06,0.38965 /
&VERT X=-0.41234,-0.06,0.40789 /
&VERT X=-0.39428,-0.06,0.42537 /
&VERT X=-0.37548,-0.06,0.44205 /
&VERT X=-0.35598,-0.06,0.4579 /
&VERT X=-0.33581,-0.06,0.4729 /
&VERT X=-0.31501,-0.06,0.487 /
&VERT X=-0.29362,-0.06,0.50019 /
&VERT X=-0.27168,-0.06,0.51244 /
&VERT X=-0.24922,-0.06,0.52372 /
&VERT X=-0.2263,-0.06,0.53403 /
&VERT X=-0.20296,-0.06,0.54333 /
&VERT X=-0.17923,-0.035,0.55161 /
&VERT X=-0.11577,-0.01,0.40373 /
&VERT X=-0.10161,-0.01,0.40752 /
&VERT X=-0.087323,-0.01,0.41082 /
&VERT X=-0.072932,-0.01,0.41362 /
&VERT X=-0.058453,-0.01,0.41591 /
&VERT X=-0.043902,-0.01,0.4177 /
&VERT X=-0.029298,-0.01,0.41898 /
&VERT X=-0.014658,-0.01,0.41974 /
&VERT X=-0.020242,-0.01,0.57965 /
&VERT X=-0.040459,-0.01,0.57859 /
&VERT X=-0.060627,-0.01,0.57682 /
&VERT X=-0.08072,-0.01,0.57436 /
&VERT X=-0.10072,-0.01,0.57119 /
&VERT X=-0.12059,-0.01,0.56733 /
&VERT X=-0.14031,-0.01,0.56277 /
&VERT X=-0.15987,-0.01,0.55753 /
&VERT X=-0.020242,-0.06,0.57965 /
&VERT X=-0.040459,-0.06,0.57859 /
&VERT X=-0.060627,-0.06,0.57682 /
&VERT X=-0.08072,-0.06,0.57436 /
&VERT X=-0.10072,-0.06,0.57119 /
&VERT X=-0.12059,-0.06,0.56733 /
&VERT X=-0.14031,-0.06,0.56277 /
&VERT X=-0.15987,-0.06,0.55753 /
&VERT X=-0.02094,-0.06,0.59963 /
&VERT X=-0.041854,-0.06,0.59854 /
&VERT X=-0.062717,-0.06,0.59671 /
&VERT X=-0.083504,-0.06,0.59416 /
&VERT X=-0.10419,-0.06,0.59088 /
&VERT X=-0.12475,-0.06,0.58689 /
&VERT X=-0.14515,-0.06,0.58218 /
&VERT X=-0.16538,-0.06,0.57676 /
&VERT X=-0.02094,0.06,0.59963 /
&VERT X=-0.041854,0.06,0.59854 /
&VERT X=-0.062717,0.06,0.59671 /
&VERT X=-0.083504,0.06,0.59416 /
&VERT X=-0.10419,0.06,0.59088 /
&VERT X=-0.12475,0.06,0.58689 /
&VERT X=-0.14515,0.06,0.58218 /
&VERT X=-0.16538,0.06,0.57676 /
&VERT X=-0.020242,0.06,0.57965 /
&VERT X=-0.040459,0.06,0.57859 /
&VERT X=-0.060627,0.06,0.57682 /
&VERT X=-0.08072,0.06,0.57436 /
&VERT X=-0.10072,0.06,0.57119 /
&VERT X=-0.12059,0.06,0.56733 /
&VERT X=-0.14031,0.06,0.56277 /
&VERT X=-0.15987,0.06,0.55753 /
&VERT X=-0.020242,0.01,0.57965 /
&VERT X=-0.040459,0.01,0.57859 /
&VERT X=-0.060627,0.01,0.57682 /
&VERT X=-0.08072,0.01,0.57436 /
&VERT X=-0.10072,0.01,0.57119 /
&VERT X=-0.12059,0.01,0.56733 /
&VERT X=-0.14031,0.01,0.56277 /
&VERT X=-0.15987,0.01,0.55753 /
&VERT X=-0.014658,0.01,0.41974 /
&VERT X=-0.029298,0.01,0.41898 /
&VERT X=-0.043902,0.01,0.4177 /
&VERT X=-0.058453,0.01,0.41591 /
&VERT X=-0.072932,0.01,0.41362 /
&VERT X=-0.087323,0.01,0.41082 /
&VERT X=-0.10161,0.01,0.40752 /
&VERT X=-0.11577,0.01,0.40373 /
&VERT X=-0.014658,0.06,0.41974 /
&VERT X=-0.029298,0.06,0.41898 /
&VERT X=-0.043902,0.06,0.4177 /
&VERT X=-0.058453,0.06,0.41591 /
&VERT X=-0.072932,0.06,0.41362 /
&VERT X=-0.087323,0.06,0.41082 /
&VERT X=-0.10161,0.06,0.40752 /
&VERT X=-0.11577,0.06,0.40373 /
&VERT X=-0.01396,0.06,0.39976 /
&VERT X=-0.027903,0.06,0.39903 /
&VERT X=-0.041811,0.06,0.39781 /
&VERT X=-0.055669,0.06,0.39611 /
&VERT X=-0.069459,0.06,0.39392 /
&VERT X=-0.083165,0.06,0.39126 /
&VERT X=-0.096769,0.06,0.38812 /
&VERT X=-0.11025,0.06,0.3845 /
&VERT X=-0.11577,-0.06,0.40373 /
&VERT X=-0.10161,-0.06,0.40752 /
&VERT X=-0.087323,-0.06,0.41082 /
&VERT X=-0.072932,-0.06,0.41362 /
&VERT X=-0.058453,-0.06,0.41591 /
&VERT X=-0.043902,-0.06,0.4177 /
&VERT X=-0.029298,-0.06,0.41898 /
&VERT X=-0.014658,-0.06,0.41974 /
&VERT X=-0.01396,-0.06,0.39976 /
&VERT X=-0.027903,-0.06,0.39903 /
&VERT X=-0.041811,-0.06,0.39781 /
&VERT X=-0.055669,-0.06,0.39611 /
&VERT X=-0.069459,-0.06,0.39392 /
&VERT X=-0.083165,-0.06,0.39126 /
&VERT X=-0.096769,-0.06,0.38812 /
&VERT X=-0.11025,-0.06,0.3845 /
&VERT X=0.20296,0.06,0.54333 /
&VERT X=0.2263,0.06,0.53403 /
&VERT X=0.24922,0.06,0.52372 /
&VERT X=0.27168,0.06,0.51244 /
&VERT X=0.29362,0.06,0.50019 /
&VERT X=0.31501,0.06,0.487 /
&VERT X=0.33581,0.06,0.4729 /
&VERT X=0.35598,0.06,0.4579 /
&VERT X=0.37548,0.06,0.44205 /
&VERT X=0.39428,0.06,0.42537 /
&VERT X=0.41234,0.06,0.40789 /
&VERT X=0.42962,0.06,0.38965 /
&VERT X=0.4461,0.06,0.37067 /
&VERT X=0.46173,0.06,0.351 /
&VERT X=0.47651,0.06,0.33067 /
&VERT X=0.49038,0.06,0.30972 /
&VERT X=0.50334,0.06,0.28818 /
&VERT X=0.51535,0.06,0.26611 /
&VERT X=0.52639,0.06,0.24354 /
&VERT X=0.53645,0.06,0.2205 /
&VERT X=0.5455,0.06,0.19706 /
&VERT X=0.55352,0.06,0.17324 /
&VERT X=0.56051,0.06,0.1491 /
&VERT X=0.56644,0.06,0.12468 /
&VERT X=0.57131,0.06,0.10003 /
&VERT X=0.57511,0.06,0.075186 /
&VERT X=0.57782,0.06,0.050203 /
&VERT X=0.57946,0.06,0.025125 /
&VERT X=0.58,0.043333,0 /
&VERT X=0.58,0.026667,0 /
&VERT X=0.57946,0.01,0.025125 /
&VERT X=0.57782,0.01,0.050203 /
&VERT X=0.57511,0.01,0.075186 /
&VERT X=0.57131,0.01,0.10003 /
&VERT X=0.56644,0.01,0.12468 /
&VERT X=0.56051,0.01,0.1491 /
&VERT X=0.55352,0.01,0.17324 /
&VERT X=0.5455,0.01,0.19706 /
&VERT X=0.53645,0.01,0.2205 /
&VERT X=0.52639,0.01,0.24354 /
&VERT X=0.51535,0.01,0.26611 /
&VERT X=0.50334,0.01,0.28818 /
&VERT X=0.49038,0.01,0.30972 /
&VERT X=0.47651,0.01,0.33067 /
&VERT X=0.46173,0.01,0.351 /
&VERT X=0.4461,0.01,0.37067 /
&VERT X=0.42962,0.01,0.38965 /
&VERT X=0.41234,0.01,0.40789 /
&VERT X=0.39428,0.01,0.42537 /
&VERT X=0.37548,0.01,0.44205 /
&VERT X=0.35598,0.01,0.4579 /
&VERT X=0.33581,0.01,0.4729 /
&VERT X=0.31501,0.01,0.487 /
&VERT X=0.29362,0.01,0.50019 /
&VERT X=0.27168,0.01,0.51244 /
&VERT X=0.24922,0.01,0.52372 /
&VERT X=0.2263,0.01,0.53403 /
&VERT X=0.20296,0.01,0.54333 /
&VERT X=0.20996,0.06,0.56207 /
&VERT X=0.23411,0.06,0.55244 /
&VERT X=0.25782,0.06,0.54178 /
&VERT X=0.28105,0.06,0.53011 /
&VERT X=0.30374,0.06,0.51744 /
&VERT X=0.32587,0.06,0.50379 /
&VERT X=0.34739,0.06,0.4892 /
&VERT X=0.36826,0.06,0.47369 /
&VERT X=0.38843,0.06,0.4573 /
&VERT X=0.40788,0.06,0.44004 /
&VERT X=0.42656,0.06,0.42196 /
&VERT X=0.44443,0.06,0.40309 /
&VERT X=0.46148,0.06,0.38346 /
&VERT X=0.47766,0.06,0.3631 /
&VERT X=0.49294,0.06,0.34207 /
&VERT X=0.50729,0.06,0.3204 /
&VERT X=0.5207,0.06,0.29812 /
&VERT X=0.53312,0.06,0.27529 /
&VERT X=0.54455,0.06,0.25193 /
&VERT X=0.55495,0.06,0.22811 /
&VERT X=0.56431,0.06,0.20385 /
&VERT X=0.57261,0.06,0.17922 /
&VERT X=0.57983,0.06,0.15424 /
&VERT X=0.58597,0.06,0.12898 /
&VERT X=0.59101,0.06,0.10348 /
&VERT X=0.59494,0.06,0.077779 /
&VERT X=0.59775,0.06,0.051934 /
&VERT X=0.59944,0.06,0.025991 /
&VERT X=0.20996,-0.06,0.56207 /
&VERT X=0.23411,-0.06,0.55244 /
&VERT X=0.25782,-0.06,0.54178 /
&VERT X=0.28105,-0.06,0.53011 /
&VERT X=0.30374,-0.06,0.51744 /
&VERT X=0.32587,-0.06,0.50379 /
&VERT X=0.34739,-0.06,0.4892 /
&VERT X=0.36826,-0.06,0.47369 /
&VERT X=0.38843,-0.06,0.4573 /
&VERT X=0.40788,-0.06,0.44004 /
&VERT X=0.42656,-0.06,0.42196 /
&VERT X=0.44443,-0.06,0.40309 /
&VERT X=0.46148,-0.06,0.38346 /
&VERT X=0.47766,-0.06,0.3631 /
&VERT X=0.49294,-0.06,0.34207 /
&VERT X=0.50729,-0.06,0.3204 /
&VERT X=0.5207,-0.06,0.29812 /
&VERT X=0.53312,-0.06,0.27529 /
&VERT X=0.54455,-0.06,0.25193 /
&VERT X=0.55495,-0.06,0.22811 /
&VERT X=0.56431,-0.06,0.20385 /
&VERT X=0.57261,-0.06,0.17922 /
&VERT X=0.57983,-0.06,0.15424 /
&VERT X=0.58597,-0.06,0.12898 /
&VERT X=0.59101,-0.06,0.10348 /
&VERT X=0.59494,-0.06,0.077779 /
&VERT X=0.59775,-0.06,0.051934 /
&VERT X=0.59944,-0.06,0.025991 /
&VERT X=0.6,-0.04,0 /
&VERT X=0.6,-0.02,0 /
&VERT X=0.6,0,0 /
&VERT X=0.6,0.02,0 /
&VERT X=0.6,0.04,0 /
&VERT X=0.20296,-0.06,0.54333 /
&VERT X=0.2263,-0.06,0.53403 /
&VERT X=0.24922,-0.06,0.52372 /
&VERT X=0.27168,-0.06,0.51244 /
&VERT X=0.29362,-0.06,0.50019 /
&VERT X=0.31501,-0.06,0.487 /
&VERT X=0.33581,-0.06,0.4729 /
&VERT X=0.35598,-0.06,0.4579 /
&VERT X=0.37548,-0.06,0.44205 /
&VERT X=0.39428,-0.06,0.42537 /
&VERT X=0.41234,-0.06,0.40789 /
&VERT X=0.42962,-0.06,0.38965 /
&VERT X=0.4461,-0.06,0.37067 /
&VERT X=0.46173,-0.06,0.351 /
&VERT X=0.47651,-0.06,0.33067 /
&VERT X=0.49038,-0.06,0.30972 /
&VERT X=0.50334,-0.06,0.28818 /
&VERT X=0.51535,-0.06,0.26611 /
&VERT X=0.52639,-0.06,0.24354 /
&VERT X=0.53645,-0.06,0.2205 /
&VERT X=0.5455,-0.06,0.19706 /
&VERT X=0.55352,-0.06,0.17324 /
&VERT X=0.56051,-0.06,0.1491 /
&VERT X=0.56644,-0.06,0.12468 /
&VERT X=0.57131,-0.06,0.10003 /
&VERT X=0.57511,-0.06,0.075186 /
&VERT X=0.57782,-0.06,0.050203 /
&VERT X=0.57946,-0.06,0.025125 /
&VERT X=0.20296,-0.01,0.54333 /
&VERT X=0.2263,-0.01,0.53403 /
&VERT X=0.24922,-0.01,0.52372 /
&VERT X=0.27168,-0.01,0.51244 /
&VERT X=0.29362,-0.01,0.50019 /
&VERT X=0.31501,-0.01,0.487 /
&VERT X=0.33581,-0.01,0.4729 /
&VERT X=0.35598,-0.01,0.4579 /
&VERT X=0.37548,-0.01,0.44205 /
&VERT X=0.39428,-0.01,0.42537 /
&VERT X=0.41234,-0.01,0.40789 /
&VERT X=0.42962,-0.01,0.38965 /
&VERT X=0.4461,-0.01,0.37067 /
&VERT X=0.46173,-0.01,0.351 /
&VERT X=0.47651,-0.01,0.33067 /
&VERT X=0.49038,-0.01,0.30972 /
&VERT X=0.50334,-0.01,0.28818 /
&VERT X=0.51535,-0.01,0.26611 /
&VERT X=0.52639,-0.01,0.24354 /
&VERT X=0.53645,-0.01,0.2205 /
&VERT X=0.5455,-0.01,0.19706 /
&VERT X=0.55352,-0.01,0.17324 /
&VERT X=0.56051,-0.01,0.1491 /
&VERT X=0.56644,-0.01,0.12468 /
&VERT X=0.57131,-0.01,0.10003 /
&VERT X=0.57511,-0.01,0.075186 /
&VERT X=0.57782,-0.01,0.050203 /
&VERT X=0.57946,-0.01,0.025125 /
&VERT X=0.58,-0.035,0 /
&VERT X=0.14697,-0.01,0.39345 /
&VERT X=0.16387,-0.01,0.38671 /
&VERT X=0.18047,-0.01,0.37925 /
&VERT X=0.19673,-0.01,0.37108 /
&VERT X=0.21262,-0.01,0.3622 /
&VERT X=0.22811,-0.01,0.35265 /
&VERT X=0.24317,-0.01,0.34244 /
&VERT X=0.25778,-0.01,0.33159 /
&VERT X=0.2719,-0.01,0.32011 /
&VERT X=0.28551,-0.01,0.30803 /
&VERT X=0.29859,-0.01,0.29537 /
&VERT X=0.3111,-0.01,0.28216 /
&VERT X=0.32303,-0.01,0.26842 /
&VERT X=0.33436,-0.01,0.25417 /
&VERT X=0.34506,-0.01,0.23945 /
&VERT X=0.3551,-0.01,0.22428 /
&VERT X=0.36449,-0.01,0.20869 /
&VERT X=0.37318,-0.01,0.1927 /
&VERT X=0.38118,-0.01,0.17635 /
&VERT X=0.38846,-0.01,0.15968 /
&VERT X=0.39502,-0.01,0.1427 /
&VERT X=0.40083,-0.01,0.12545 /
&VERT X=0.40588,-0.01,0.10797 /
&VERT X=0.41018,-0.01,0.090288 /
&VERT X=0.41371,-0.01,0.072434 /
&VERT X=0.41646,-0.01,0.054445 /
&VERT X=0.41842,-0.01,0.036354 /
&VERT X=0.41961,-0.01,0.018194 /
&VERT X=0.44,-0.01,0 /
&VERT X=0.46,-0.01,0 /
&VERT X=0.48,-0.01,0 /
&VERT X=0.5,-0.01,0 /
&VERT X=0.52,-0.01,0 /
&VERT X=0.54,-0.01,0 /
&VERT X=0.56,-0.01,0 /
&VERT X=0.14697,-0.06,0.39345 /
&VERT X=0.16387,-0.06,0.38671 /
&VERT X=0.18047,-0.06,0.37925 /
&VERT X=0.19673,-0.06,0.37108 /
&VERT X=0.21262,-0.06,0.3622 /
&VERT X=0.22811,-0.06,0.35265 /
&VERT X=0.24317,-0.06,0.34244 /
&VERT X=0.25778,-0.06,0.33159 /
&VERT X=0.2719,-0.06,0.32011 /
&VERT X=0.28551,-0.06,0.30803 /