The SURF and PART pairs below can be implemented for dry or wet veg

For the wet vegetation case below. Np from FDS (output from radi.f90 where KAPPA_PART is computed) is
NpFDS = 2933.54. 
My computation of Np = 2716.2, these are not equal

For the dry vegetation case below, NpFDS=3259.49
My computation of Np=3259.49, 

SO THE NUMBER OF PARTICLES ARE THE SAME THERE's NO MOISTURE

KAPPA_PART = 0.25*(Packing Ratio)*(Surface to Volume ratio)*(Volume fraction of vegetaion in grid cell) = 
           = 0.25*(Bulk density / Particle density)*(Surface to Volume ratio)*(Volume fraction vegetation in grid cell)
           = 0.25*(Bulk density / Particle density)*(2/THICKNESS)*(Volume fraction vegetation in grid cell)

KAPPA_PART for wet veg = 0.25*(1/600)*(2/0.001)*(0.8*0.8*0.8) = 0.427, FDS has KAPPA_PART = 0.461, because Np larger
KAPPA_PART for dry veg = 0.25*(1/500)*(2/0.001)*(0.8*0.8*0.8) = 0.512, this agrees with FDS
           
&HEAD CHID='test_kappa_part', TITLE='Test to see what value of PWT is' /

&MESH IJK=10,10,10, XB=0,10,0,10,0,10 /
&TIME T_END=1., DT=0.1 / 

&SPEC ID='WATER VAPOR' /

&SURF ID                        = 'wet vegetation'
      MATL_ID(1,1:2)            = 'PINE','MOISTURE'
      MATL_MASS_FRACTION(1,1:2) = 0.8,0.2 
      THICKNESS                 = 0.001 
      LENGTH                    = 0.1
      GEOMETRY                  = 'CYLINDRICAL' /
&PART ID='pine needles', SAMPLING_FACTOR=1, SURF_ID='wet vegetation', PROP_ID='wood image'
      QUANTITIES='PARTICLE TEMPERATURE','PARTICLE MASS','PARTICLE DIAMETER', STATIC=.TRUE. /

cSURF ID                        = 'dry vegetation'
      MATL_ID(1,1:1)            = 'PINE'
      MATL_MASS_FRACTION(1,1:1) = 1.0 
      THICKNESS                 = 0.001 
      LENGTH                    = 0.1
      GEOMETRY                  = 'CYLINDRICAL' /
cPART ID='pine needles', SAMPLING_FACTOR=1, SURF_ID='dry vegetation', PROP_ID='wood image'
      QUANTITIES='PARTICLE TEMPERATURE','PARTICLE MASS','PARTICLE DIAMETER', STATIC=.TRUE. /

&MATL ID = 'PINE'
      DENSITY = 500.
      CONDUCTIVITY = 0.1
      SPECIFIC_HEAT= 1.0
      MATL_ID  = 'CHAR'
      NU_MATL=0.2
      NU_SPEC=0.8 /
 
&MATL ID = 'MOISTURE'
      DENSITY = 1000.
      CONDUCTIVITY = 0.1
      SPECIFIC_HEAT= 4.184 /

&MATL ID = 'CHAR'
      DENSITY  = 200.
      CONDUCTIVITY = 1.0
      SPECIFIC_HEAT = 1.6 /

&INIT PART_ID='pine needles', XB=4.1,4.9,4.1,4.9,4.1,4.9, MASS_PER_VOLUME=1., N_PARTICLES_PER_CELL=1, CELL_CENTERED=.TRUE.  /

&DUMP MASS_FILE=.TRUE. /

&DEVC XB=0.,10.,0.,10.,0.,10., QUANTITY='MPUV', PART_ID='pine needles', ID='solid_mass', STATISTICS='VOLUME INTEGRAL'  /

&TAIL /
