&HEAD CHID='vege_mass_conservation', TITLE='Test for mass conservation when burning vegetation' /

&MESH IJK=10,10,10, XB=0.0,1.0,0.0,1.0,0.0,1.0 /
<<<<<<< HEAD
&MISC HUMIDITY=0., Y_O2_INFTY = 0.01/
=======
&MISC HUMIDITY=0., Y_O2_INFTY = 0.01, RUN_AVG_FAC=0. /
>>>>>>> 900e38896dccc585db7f3099c98411e6fafb3e85
&TIME T_END=10., DT=0.01 / 

&REAC FUEL = 'CELLULOSE'
      C = 6. 
      H = 10. 
      O = 5.  /

&SPEC ID='WATER VAPOR' /

&SURF ID='HOT WALL', TMP_FRONT=1000., DEFAULT=.TRUE. /

&SURF ID                        = 'wet vegetation'
      MATL_ID(1,1:2)            = 'PINE','MOISTURE'
      MATL_MASS_FRACTION(1,1:2) = 0.8,0.2 
      THICKNESS                 = 0.00025
      LENGTH                    = 0.1
      GEOMETRY                  = 'CYLINDRICAL' /
      
&MATL ID = 'PINE'
      DENSITY = 500.
      CONDUCTIVITY = 0.1
      SPECIFIC_HEAT= 1.0
      N_REACTIONS = 1
      REFERENCE_TEMPERATURE = 300.
      NU_MATL = 0.2
      NU_SPEC = 0.8
      SPEC_ID = 'CELLULOSE'
      HEAT_OF_REACTION= 1000
      ALLOW_SHRINKING=.FALSE.
      ALLOW_SWELLING=.FALSE.
      MATL_ID  = 'CHAR' /
 
&MATL ID = 'MOISTURE'
      DENSITY = 1000.
      CONDUCTIVITY = 0.1
      SPECIFIC_HEAT= 4.184
      N_REACTIONS = 1
      REFERENCE_TEMPERATURE = 100.
      NU_SPEC = 1.0
      SPEC_ID = 'WATER VAPOR'
      HEAT_OF_REACTION= 2500. /

&MATL ID = 'CHAR'
      DENSITY  = 200.
      CONDUCTIVITY = 1.0
      SPECIFIC_HEAT = 1.6 /

&PART ID='pine needles', SAMPLING_FACTOR=1, SURF_ID='wet vegetation', PROP_ID='wood image'
      QUANTITIES='PARTICLE TEMPERATURE','PARTICLE MASS','PARTICLE DIAMETER', STATIC=.TRUE. /

&INIT PART_ID='pine needles', XB=0.,1.,0.,1.,0.,1., MASS_PER_VOLUME=1., N_PARTICLES_PER_CELL=1, CELL_CENTERED=.TRUE.  /

&PROP ID='wood image', SMOKEVIEW_ID='TUBE', SMOKEVIEW_PARAMETERS='L=0.1','D=0.0005' /

&DUMP MASS_FILE=.TRUE. /

<<<<<<< HEAD
&DEVC XB=0.,1.,0.,1.,0.,1., QUANTITY='DENSITY', ID='fuel_gas_mass', STATISTICS='VOLUME INTEGRAL', SPEC_ID='CELLULOSE' /
&DEVC XB=0.,1.,0.,1.,0.,1., QUANTITY='DENSITY', ID='water_vapor_mass', STATISTICS='VOLUME INTEGRAL', SPEC_ID='WATER VAPOR' /
&DEVC XB=0.,1.,0.,1.,0.,1., QUANTITY='MPUV', PART_ID='pine needles', ID='solid_mass', STATISTICS='VOLUME INTEGRAL'  /
=======
&DEVC XB=0.,1.,0.,1.,0.,1., QUANTITY='DENSITY', ID='fuel_gas_mass', STATISTICS='VOLUME INTEGRAL', TIME_AVERAGED=.FALSE., SPEC_ID='CELLULOSE' /
&DEVC XB=0.,1.,0.,1.,0.,1., QUANTITY='DENSITY', ID='water_vapor_mass', STATISTICS='VOLUME INTEGRAL', TIME_AVERAGED=.FALSE., SPEC_ID='WATER VAPOR' /
&DEVC XB=0.,1.,0.,1.,0.,1., QUANTITY='MPUV', PART_ID='pine needles', ID='solid_mass', STATISTICS='VOLUME INTEGRAL', TIME_AVERAGED=.FALSE.  /

&CTRL ID='total mass',FUNCTION_TYPE='SUM',INPUT_ID='fuel_gas_mass', 'water_vapor_mass', 'solid_mass'/
&DEVC XB=0.,1.,0.,1.,0.,1., QUANTITY='CONTROL VALUE', ID='total_mass', CTRL_ID='total mass', UNITS='kg'/
>>>>>>> 900e38896dccc585db7f3099c98411e6fafb3e85

&SLCF PBY=0.5, QUANTITY='MASS FRACTION', SPEC_ID='WATER VAPOR' /
&SLCF PBY=0.5, QUANTITY='RELATIVE HUMIDITY' /

&TAIL /
