IMO MSC.1/Circ.1238 (30 October 2007)
'Guidelines For Evacuation Analysis for New and Existing Passenger Ships',
Annex 3
'Guidance on Validation/Verification of Evacuation Simulation Tools'

Test 8: Counterflow two rooms connected via a corridor
        case D: 100 at right

&HEAD CHID='IMO_Test_08d',
      TITLE='IMO-Test 8: Counterflow two rooms connected via a corridor' /

&MESH IJK=128,48,1, XB=-1.0,31.0, -1.0,11.0, 0.95,1.05, EVACUATION=.TRUE.,
      EVAC_HUMANS=.TRUE., EVAC_Z_OFFSET=1.0, ID='FFMain' /

&TIME T_END=500.0, DT=0.1 /

 Note: RADIATION=.FALSE. speeds up and saves memory, if only
       an evacuation calculation is done (no fire meshes at all).

&MISC EVACUATION_MC_MODE=.TRUE., EVACUATION_DRILL=.TRUE. /
&RADI RADIATION=.FALSE. /

 Note: suppress fire related output, because just evacuation
       meshes present. DT_PART is used both by fire and
       evacuation meshes. For evacuation it is the time step
       how often the positions of the agents are saved on the
       disk for Smokeview. The DT_HRR is also the output time step
       for the CHID_evac.csv spreadsheet file. The output time step
       will not be shorter than the EVAC_DT_STEADY_STATE (default is
       0.05 s) on the TIME-namelist.

&DUMP SMOKE3D=.FALSE.,
      NFRAMES=500,
      DT_PART=0.5,
      DT_HRR=0.1,
      DT_SLCF=1000000.0,
      DT_PL3D=1000000.0,
      DT_ISOF=1000000.0 /

 Default material for evacuation meshes is INERT and its color
 can not be changed esily in Smokeview.  Thus, an evacuation
 material is defined below, which has only color.  Of course,
 one can give explicitely COLOR or RGB on the OBST lines also.
&SURF ID='EVAC_WALL', RGB=200,0,200 / or COLOR

=======================================================
============= FIRE FDS GEOMETRY STARTS ================
=======================================================

&OBST XB = -1.0, 0.0, -1.0,11.0, 0.0,2.0, SURF_ID='INERT' /
&OBST XB = 30.0,31.0, -1.0,11.0, 0.0,2.0, SURF_ID='INERT' /

&OBST XB = -1.0,31.0, -1.0, 0.0, 0.0,2.0, SURF_ID='INERT' /
&OBST XB = -1.0,31.0, 10.0,11.0, 0.0,2.0, SURF_ID='INERT' /

&OBST XB = 10.0,20.0,  0.0, 4.0, 0.0,2.0, SURF_ID='INERT' /
&OBST XB = 10.0,20.0,  6.0,10.0, 0.0,2.0, SURF_ID='INERT' /

=======================================================
============= FIRE FDS GEOMETRY ENDS ==================
=======================================================

=======================================================
============= EVAC GEOMETRY STARTS ====================
=======================================================

&EXIT ID='Exit_CountRight', IOR = +1,
      FYI='Comment line',
      COUNT_ONLY=.TRUE.
      XB = 20.0,20.0,  4.0,6.0, 1.0,1.0 /

&EXIT ID='ExitLeft', IOR = -1,
      FYI='Comment line',
      XB = 0.0, 0.0,  0.0,10.0, 0.95,1.05, /
&EXIT ID='ExitRight', IOR = +1,
      FYI='Comment line',
      XB = 30.0,30.0,  0.0,10.0, 0.95,1.05, /

=======================================================
============= EVAC GEOMETRY ENDS ======================
=======================================================

 Distribution type 0: a single value, MEAN is used
 Distribution type 1: uniform distribution, LOW and HIGH are used
 Color method 0: Agents are colored using EVAC line colors
 Color method 3: Agents are colored using PERS line colors

 Agents start to walk at t=0.0 s.
 t_det is the detection time and t_pre is the reaction time
 and (t_pre + t_det) is the time when agents start to move
 towards the exit doors.

&PERS ID='Imo1', FYI='Imo, 30-50 males',
      DEFAULT_PROPERTIES='Male',
      VELOCITY_DIST=1, VEL_LOW=0.97, VEL_HIGH=1.62,
      PRE_EVAC_DIST=0, PRE_MEAN=0.0,
      DET_EVAC_DIST=0, DET_MEAN=0.0,
      AVATAR_COLOR= 'BLUE',
      TDET_SMOKE_DENS=0.1 , HUMAN_SMOKE_HEIGHT=1.60,
      DENS_INIT = 2.5, COLOR_METHOD = 0,
      I_HERDING_TYPE=2, /

 Initial position of the humans
&EVAC ID = 'EVAC_left', FYI= 'Comment line',
      NUMBER_INITIAL_PERSONS = 100,
      XB = 0.1,5.5, 0.1,9.9, 1.0,1.0
      AVATAR_COLOR = 'BLACK', AGENT_TYPE=2,
      KNOWN_DOOR_NAMES='ExitRight',
      KNOWN_DOOR_PROBS=1.0,
      PERS_ID = 'Imo1' /

&EVAC ID = 'EVAC_right', FYI= 'Comment line',
      NUMBER_INITIAL_PERSONS = 100,
      XB =24.7,29.7, 0.3,9.7, 1.0,1.0
      AVATAR_COLOR = 'RED', AGENT_TYPE=2,
      KNOWN_DOOR_NAMES='ExitLeft',
      KNOWN_DOOR_PROBS=1.0,
      PERS_ID = 'Imo1' /

 Next line could be used to plot the evacuation flow fields:
 SLCF PBZ = 1.000, QUANTITY = 'VELOCITY', VECTOR = .TRUE., EVACUATION=.TRUE./

&TAIL /
