&HEAD CHID='test1_02', TITLE='General purpose input file to test FDS timings, SVN $Revision: 12143 $' /

&MESH IJK=128,128,128, XB=0.0,1.0,0.0,1.0,0.0,1.0 /

&TIME T_END=1.0 /

&SURF ID='HOT', VEL=-0.1, TMP_FRONT=100., COLOR='RED' /

&VENT MB='XMIN', SURF_ID='OPEN' /
&VENT MB='XMAX', SURF_ID='OPEN' /
&VENT MB='YMIN', SURF_ID='OPEN' /
&VENT MB='YMAX', SURF_ID='OPEN' /
&VENT PBZ=0.0,   SURF_ID='HOT' /
&VENT MB='ZMAX', SURF_ID='OPEN' /


&TAIL /
