&HEAD CHID='BT10m_2x2km_LS' /

&MESH IJK=100,100,20, XB=0,2000,0,2000,91,291 /

&TIME T_END=1800 /
&MISC VEG_LEVEL_SET_UNCOUPLED=.TRUE.,TERRAIN_CASE=.TRUE.,U0=5,V0=-14,
     TERRAIN_IMAGE='BT10m_2x2km.jpg' /


&SURF ID='GRASS'
      VEG_LEVEL_SET_SPREAD=.TRUE.
      VEG_LSET_ROS_HEAD = 2.0
      VEG_LSET_ROS_FLANK = 0.05
      VEG_LSET_ROS_BACK = 0.05
      VEG_LSET_WIND_EXP = 1
      RGB        = 122,117,48  /

&SURF ID='NO BURN'
      VEG_LEVEL_SET_SPREAD=.TRUE.
      VEGETATION_NO_BURN = .TRUE.
      VEG_LSET_ROS_HEAD = 0
      VEG_LSET_ROS_FLANK = 0
      VEG_LSET_ROS_BACK = 0
      COLOR      = 'BLACK' /

-- Ignitor fire
&SURF ID ='IGN FIRE',VEGETATION_LSET_IGNITE_TIME=1,COLOR = 'RED' /
&VENT XB=1600,1920,1630,1640, 96, 96,IOR=3,SURF_ID='IGN FIRE' / line
&VENT XB= 200, 400,1780,1800, 91, 91,IOR=3,SURF_ID='IGN FIRE' / line


-- Boundary conditions
&SURF ID='CROSS_INFLOW',VEL=-14.,VEL_T=-14.,0.,RAMP_V='RAMPVEL'  /
&RAMP ID='RAMPVEL',T=0.0,F=0.0 /
&RAMP ID='RAMPVEL',T=0.5,F=1.0 /

&VENT XB=   0,   0,   0,2000, 91,291,SURF_ID='OPEN' /
&VENT XB=2000,2000,   0,2000, 91,291,SURF_ID='CROSS_INFLOW' /
&VENT XB=   0,2000,   0,   0, 91,291,SURF_ID='OPEN' /
&VENT XB=   0,2000,2000,2000, 91,291,SURF_ID='CROSS_INFLOW' /
&VENT XB=   0,2000,   0,2000,291,291,SURF_ID='OPEN'  /

&DUMP DT_SLCF=0.5 /

&OBST XB= 0,	10,	1990,	2000,	91,	93,SURF_ID='GRASS' /
&OBST XB= 10,	20,	1990,	2000,	91,	94,SURF_ID='GRASS' /
&OBST XB= 20,	30,	1990,	2000,	91,	94,SURF_ID='GRASS' /
&OBST XB= 30,	40,	1990,	2000,	91,	94,SURF_ID='GRASS' /
&OBST XB= 40,	50,	1990,	2000,	91,	94,SURF_ID='GRASS' /
&OBST XB= 50,	60,	1990,	2000,	91,	94,SURF_ID='GRASS' /
&OBST XB= 60,	70,	1990,	2000,	91,	94,SURF_ID='GRASS' /
&OBST XB= 70,	80,	1990,	2000,	91,	94,SURF_ID='GRASS' /
&OBST XB= 80,	90,	1990,	2000,	91,	94,SURF_ID='GRASS' /
&OBST XB= 90,	100,	1990,	2000,	91,	94,SURF_ID='GRASS' /
&OBST XB= 100,	110,	1990,	2000,	91,	94,SURF_ID='GRASS' /
&OBST XB= 110,	120,	1990,	2000,	91,	94,SURF_ID='GRASS' /
&OBST XB= 120,	130,	1990,	2000,	91,	94,SURF_ID='GRASS' /
&OBST XB= 130,	140,	1990,	2000,	91,	94,SURF_ID='GRASS' /
&OBST XB= 140,	150,	1990,	2000,	91,	94,SURF_ID='GRASS' /
&OBST XB= 150,	160,	1990,	2000,	91,	94,SURF_ID='GRASS' /
&OBST XB= 160,	170,	1990,	2000,	91,	94,SURF_ID='GRASS' /
&OBST XB= 170,	180,	1990,	2000,	91,	94,SURF_ID='GRASS' /
&OBST XB= 180,	190,	1990,	2000,	91,	94,SURF_ID='GRASS' /
&OBST XB= 190,	200,	1990,	2000,	91,	94,SURF_ID='GRASS' /
&OBST XB= 200,	210,	1990,	2000,	91,	94,SURF_ID='GRASS' /
&OBST XB= 210,	220,	1990,	2000,	91,	94,SURF_ID='GRASS' /
&OBST XB= 220,	230,	1990,	2000,	91,	95,SURF_ID='GRASS' /
&OBST XB= 230,	240,	1990,	2000,	91,	95,SURF_ID='GRASS' /
&OBST XB= 240,	250,	1990,	2000,	91,	95,SURF_ID='GRASS' /
&OBST XB= 250,	260,	1990,	2000,	91,	95,SURF_ID='GRASS' /
&OBST XB= 260,	270,	1990,	2000,	91,	95,SURF_ID='GRASS' /
&OBST XB= 270,	280,	1990,	2000,	91,	95,SURF_ID='GRASS' /
&OBST XB= 280,	290,	1990,	2000,	91,	95,SURF_ID='GRASS' /
&OBST XB= 290,	300,	1990,	2000,	91,	95,SURF_ID='GRASS' /
&OBST XB= 300,	310,	1990,	2000,	91,	95,SURF_ID='GRASS' /
&OBST XB= 310,	320,	1990,	2000,	91,	95,SURF_ID='GRASS' /
&OBST XB= 320,	330,	1990,	2000,	91,	95,SURF_ID='GRASS' /
&OBST XB= 330,	340,	1990,	2000,	91,	95,SURF_ID='GRASS' /
&OBST XB= 340,	350,	1990,	2000,	91,	95,SURF_ID='GRASS' /
&OBST XB= 350,	360,	1990,	2000,	91,	95,SURF_ID='GRASS' /
&OBST XB= 360,	370,	1990,	2000,	91,	95,SURF_ID='GRASS' /
&OBST XB= 370,	380,	1990,	2000,	91,	95,SURF_ID='GRASS' /
&OBST XB= 380,	390,	1990,	2000,	91,	95,SURF_ID='GRASS' /
&OBST XB= 390,	400,	1990,	2000,	91,	96,SURF_ID='GRASS' /
&OBST XB= 400,	410,	1990,	2000,	91,	96,SURF_ID='GRASS' /
&OBST XB= 410,	420,	1990,	2000,	91,	96,SURF_ID='GRASS' /
&OBST XB= 420,	430,	1990,	2000,	91,	96,SURF_ID='GRASS' /
&OBST XB= 430,	440,	1990,	2000,	91,	96,SURF_ID='GRASS' /
&OBST XB= 440,	450,	1990,	2000,	91,	96,SURF_ID='GRASS' /
&OBST XB= 450,	460,	1990,	2000,	91,	96,SURF_ID='GRASS' /
&OBST XB= 460,	470,	1990,	2000,	91,	96,SURF_ID='GRASS' /
&OBST XB= 470,	480,	1990,	2000,	91,	96,SURF_ID='GRASS' /
&OBST XB= 480,	490,	1990,	2000,	91,	96,SURF_ID='GRASS' /
&OBST XB= 490,	500,	1990,	2000,	91,	96,SURF_ID='GRASS' /
&OBST XB= 500,	510,	1990,	2000,	91,	96,SURF_ID='GRASS' /
&OBST XB= 510,	520,	1990,	2000,	91,	96,SURF_ID='GRASS' /
&OBST XB= 520,	530,	1990,	2000,	91,	97,SURF_ID='GRASS' /
&OBST XB= 530,	540,	1990,	2000,	91,	97,SURF_ID='GRASS' /
&OBST XB= 540,	550,	1990,	2000,	91,	97,SURF_ID='GRASS' /
&OBST XB= 550,	560,	1990,	2000,	91,	97,SURF_ID='GRASS' /
&OBST XB= 560,	570,	1990,	2000,	91,	97,SURF_ID='GRASS' /
&OBST XB= 570,	580,	1990,	2000,	91,	97,SURF_ID='GRASS' /
&OBST XB= 580,	590,	1990,	2000,	91,	97,SURF_ID='GRASS' /
&OBST XB= 590,	600,	1990,	2000,	91,	97,SURF_ID='GRASS' /
&OBST XB= 600,	610,	1990,	2000,	91,	97,SURF_ID='GRASS' /
&OBST XB= 610,	620,	1990,	2000,	91,	98,SURF_ID='GRASS' /
&OBST XB= 620,	630,	1990,	2000,	91,	98,SURF_ID='GRASS' /
&OBST XB= 630,	640,	1990,	2000,	91,	99,SURF_ID='GRASS' /
&OBST XB= 640,	650,	1990,	2000,	91,	100,SURF_ID='GRASS' /
&OBST XB= 650,	660,	1990,	2000,	91,	101,SURF_ID='GRASS' /
&OBST XB= 660,	670,	1990,	2000,	91,	102,SURF_ID='GRASS' /
&OBST XB= 670,	680,	1990,	2000,	91,	103,SURF_ID='GRASS' /
&OBST XB= 680,	690,	1990,	2000,	91,	104,SURF_ID='GRASS' /
&OBST XB= 690,	700,	1990,	2000,	91,	106,SURF_ID='GRASS' /
&OBST XB= 700,	710,	1990,	2000,	91,	107,SURF_ID='GRASS' /
&OBST XB= 710,	720,	1990,	2000,	91,	108,SURF_ID='GRASS' /
&OBST XB= 720,	730,	1990,	2000,	91,	109,SURF_ID='GRASS' /
&OBST XB= 730,	740,	1990,	2000,	91,	111,SURF_ID='GRASS' /
&OBST XB= 740,	750,	1990,	2000,	91,	112,SURF_ID='GRASS' /
&OBST XB= 750,	760,	1990,	2000,	91,	112,SURF_ID='GRASS' /
&OBST XB= 760,	770,	1990,	2000,	91,	112,SURF_ID='GRASS' /
&OBST XB= 770,	780,	1990,	2000,	91,	112,SURF_ID='GRASS' /
&OBST XB= 780,	790,	1990,	2000,	91,	113,SURF_ID='GRASS' /
&OBST XB= 790,	800,	1990,	2000,	91,	116,SURF_ID='GRASS' /
&OBST XB= 800,	810,	1990,	2000,	91,	117,SURF_ID='GRASS' /
&OBST XB= 810,	820,	1990,	2000,	91,	118,SURF_ID='GRASS' /
&OBST XB= 820,	830,	1990,	2000,	91,	119,SURF_ID='GRASS' /
&OBST XB= 830,	840,	1990,	2000,	91,	119,SURF_ID='GRASS' /
&OBST XB= 840,	850,	1990,	2000,	91,	120,SURF_ID='GRASS' /
&OBST XB= 850,	860,	1990,	2000,	91,	120,SURF_ID='GRASS' /
&OBST XB= 860,	870,	1990,	2000,	91,	119,SURF_ID='GRASS' /
&OBST XB= 870,	880,	1990,	2000,	91,	119,SURF_ID='GRASS' /
&OBST XB= 880,	890,	1990,	2000,	91,	119,SURF_ID='GRASS' /
&OBST XB= 890,	900,	1990,	2000,	91,	118,SURF_ID='GRASS' /
&OBST XB= 900,	910,	1990,	2000,	91,	117,SURF_ID='GRASS' /
&OBST XB= 910,	920,	1990,	2000,	91,	116,SURF_ID='GRASS' /
&OBST XB= 920,	930,	1990,	2000,	91,	114,SURF_ID='GRASS' /
&OBST XB= 930,	940,	1990,	2000,	91,	113,SURF_ID='GRASS' /
&OBST XB= 940,	950,	1990,	2000,	91,	111,SURF_ID='GRASS' /
&OBST XB= 950,	960,	1990,	2000,	91,	110,SURF_ID='GRASS' /
&OBST XB= 960,	970,	1990,	2000,	91,	110,SURF_ID='GRASS' /
&OBST XB= 970,	980,	1990,	2000,	91,	110,SURF_ID='GRASS' /
&OBST XB= 980,	990,	1990,	2000,	91,	110,SURF_ID='GRASS' /
&OBST XB= 990,	1000,	1990,	2000,	91,	109,SURF_ID='GRASS' /
&OBST XB= 1000,	1010,	1990,	2000,	91,	109,SURF_ID='GRASS' /
&OBST XB= 1010,	1020,	1990,	2000,	91,	109,SURF_ID='GRASS' /
&OBST XB= 1020,	1030,	1990,	2000,	91,	110,SURF_ID='GRASS' /
&OBST XB= 1030,	1040,	1990,	2000,	91,	110,SURF_ID='GRASS' /
&OBST XB= 1040,	1050,	1990,	2000,	91,	109,SURF_ID='GRASS' /
&OBST XB= 1050,	1060,	1990,	2000,	91,	109,SURF_ID='GRASS' /
&OBST XB= 1060,	1070,	1990,	2000,	91,	109,SURF_ID='GRASS' /
&OBST XB= 1070,	1080,	1990,	2000,	91,	110,SURF_ID='GRASS' /
&OBST XB= 1080,	1090,	1990,	2000,	91,	110,SURF_ID='GRASS' /
&OBST XB= 1090,	1100,	1990,	2000,	91,	110,SURF_ID='GRASS' /
&OBST XB= 1100,	1110,	1990,	2000,	91,	110,SURF_ID='GRASS' /
&OBST XB= 1110,	1120,	1990,	2000,	91,	110,SURF_ID='GRASS' /
&OBST XB= 1120,	1130,	1990,	2000,	91,	110,SURF_ID='GRASS' /
&OBST XB= 1130,	1140,	1990,	2000,	91,	110,SURF_ID='GRASS' /
&OBST XB= 1140,	1150,	1990,	2000,	91,	110,SURF_ID='GRASS' /
&OBST XB= 1150,	1160,	1990,	2000,	91,	110,SURF_ID='GRASS' /
&OBST XB= 1160,	1170,	1990,	2000,	91,	110,SURF_ID='GRASS' /
&OBST XB= 1170,	1180,	1990,	2000,	91,	111,SURF_ID='GRASS' /
&OBST XB= 1180,	1190,	1990,	2000,	91,	111,SURF_ID='GRASS' /
&OBST XB= 1190,	1200,	1990,	2000,	91,	112,SURF_ID='GRASS' /
&OBST XB= 1200,	1210,	1990,	2000,	91,	112,SURF_ID='GRASS' /
&OBST XB= 1210,	1220,	1990,	2000,	91,	112,SURF_ID='GRASS' /
&OBST XB= 1220,	1230,	1990,	2000,	91,	112,SURF_ID='GRASS' /
&OBST XB= 1230,	1240,	1990,	2000,	91,	112,SURF_ID='GRASS' /
&OBST XB= 1240,	1250,	1990,	2000,	91,	112,SURF_ID='GRASS' /
&OBST XB= 1250,	1260,	1990,	2000,	91,	112,SURF_ID='GRASS' /
&OBST XB= 1260,	1270,	1990,	2000,	91,	112,SURF_ID='GRASS' /
&OBST XB= 1270,	1280,	1990,	2000,	91,	112,SURF_ID='GRASS' /
&OBST XB= 1280,	1290,	1990,	2000,	91,	112,SURF_ID='GRASS' /
&OBST XB= 1290,	1300,	1990,	2000,	91,	112,SURF_ID='GRASS' /
&OBST XB= 1300,	1310,	1990,	2000,	91,	112,SURF_ID='GRASS' /
&OBST XB= 1310,	1320,	1990,	2000,	91,	112,SURF_ID='GRASS' /
&OBST XB= 1320,	1330,	1990,	2000,	91,	111,SURF_ID='GRASS' /
&OBST XB= 1330,	1340,	1990,	2000,	91,	111,SURF_ID='GRASS' /
&OBST XB= 1340,	1350,	1990,	2000,	91,	111,SURF_ID='GRASS' /
&OBST XB= 1350,	1360,	1990,	2000,	91,	111,SURF_ID='GRASS' /
&OBST XB= 1360,	1370,	1990,	2000,	91,	111,SURF_ID='GRASS' /
&OBST XB= 1370,	1380,	1990,	2000,	91,	111,SURF_ID='GRASS' /
&OBST XB= 1380,	1390,	1990,	2000,	91,	111,SURF_ID='GRASS' /
&OBST XB= 1390,	1400,	1990,	2000,	91,	110,SURF_ID='GRASS' /
&OBST XB= 1400,	1410,	1990,	2000,	91,	110,SURF_ID='GRASS' /
&OBST XB= 1410,	1420,	1990,	2000,	91,	109,SURF_ID='GRASS' /
&OBST XB= 1420,	1430,	1990,	2000,	91,	109,SURF_ID='GRASS' /
&OBST XB= 1430,	1440,	1990,	2000,	91,	109,SURF_ID='GRASS' /
&OBST XB= 1440,	1450,	1990,	2000,	91,	109,SURF_ID='GRASS' /
&OBST XB= 1450,	1460,	1990,	2000,	91,	109,SURF_ID='GRASS' /
&OBST XB= 1460,	1470,	1990,	2000,	91,	109,SURF_ID='GRASS' /
&OBST XB= 1470,	1480,	1990,	2000,	91,	108,SURF_ID='GRASS' /
&OBST XB= 1480,	1490,	1990,	2000,	91,	108,SURF_ID='GRASS' /
&OBST XB= 1490,	1500,	1990,	2000,	91,	108,SURF_ID='GRASS' /
&OBST XB= 1500,	1510,	1990,	2000,	91,	107,SURF_ID='GRASS' /
&OBST XB= 1510,	1520,	1990,	2000,	91,	107,SURF_ID='GRASS' /
&OBST XB= 1520,	1530,	1990,	2000,	91,	107,SURF_ID='GRASS' /
&OBST XB= 1530,	1540,	1990,	2000,	91,	107,SURF_ID='GRASS' /
&OBST XB= 1540,	1550,	1990,	2000,	91,	107,SURF_ID='GRASS' /
&OBST XB= 1550,	1560,	1990,	2000,	91,	107,SURF_ID='GRASS' /
&OBST XB= 1560,	1570,	1990,	2000,	91,	107,SURF_ID='GRASS' /
&OBST XB= 1570,	1580,	1990,	2000,	91,	107,SURF_ID='GRASS' /
&OBST XB= 1580,	1590,	1990,	2000,	91,	107,SURF_ID='GRASS' /
&OBST XB= 1590,	1600,	1990,	2000,	91,	107,SURF_ID='GRASS' /
&OBST XB= 1600,	1610,	1990,	2000,	91,	107,SURF_ID='GRASS' /
&OBST XB= 1610,	1620,	1990,	2000,	91,	107,SURF_ID='GRASS' /
&OBST XB= 1620,	1630,	1990,	2000,	91,	107,SURF_ID='GRASS' /
&OBST XB= 1630,	1640,	1990,	2000,	91,	107,SURF_ID='GRASS' /
&OBST XB= 1640,	1650,	1990,	2000,	91,	107,SURF_ID='GRASS' /
&OBST XB= 1650,	1660,	1990,	2000,	91,	106,SURF_ID='GRASS' /
&OBST XB= 1660,	1670,	1990,	2000,	91,	106,SURF_ID='GRASS' /
&OBST XB= 1670,	1680,	1990,	2000,	91,	106,SURF_ID='GRASS' /
&OBST XB= 1680,	1690,	1990,	2000,	91,	106,SURF_ID='GRASS' /
&OBST XB= 1690,	1700,	1990,	2000,	91,	105,SURF_ID='GRASS' /
&OBST XB= 1700,	1710,	1990,	2000,	91,	105,SURF_ID='GRASS' /
&OBST XB= 1710,	1720,	1990,	2000,	91,	104,SURF_ID='GRASS' /
&OBST XB= 1720,	1730,	1990,	2000,	91,	104,SURF_ID='GRASS' /
&OBST XB= 1730,	1740,	1990,	2000,	91,	103,SURF_ID='GRASS' /
&OBST XB= 1740,	1750,	1990,	2000,	91,	103,SURF_ID='GRASS' /
&OBST XB= 1750,	1760,	1990,	2000,	91,	103,SURF_ID='GRASS' /
&OBST XB= 1760,	1770,	1990,	2000,	91,	103,SURF_ID='GRASS' /
&OBST XB= 1770,	1780,	1990,	2000,	91,	103,SURF_ID='GRASS' /
&OBST XB= 1780,	1790,	1990,	2000,	91,	103,SURF_ID='GRASS' /
&OBST XB= 1790,	1800,	1990,	2000,	91,	103,SURF_ID='GRASS' /
&OBST XB= 1800,	1810,	1990,	2000,	91,	103,SURF_ID='GRASS' /
&OBST XB= 1810,	1820,	1990,	2000,	91,	103,SURF_ID='GRASS' /
&OBST XB= 1820,	1830,	1990,	2000,	91,	102,SURF_ID='GRASS' /
&OBST XB= 1830,	1840,	1990,	2000,	91,	102,SURF_ID='GRASS' /
&OBST XB= 1840,	1850,	1990,	2000,	91,	102,SURF_ID='GRASS' /
&OBST XB= 1850,	1860,	1990,	2000,	91,	102,SURF_ID='GRASS' /
&OBST XB= 1860,	1870,	1990,	2000,	91,	102,SURF_ID='GRASS' /
&OBST XB= 1870,	1880,	1990,	2000,	91,	102,SURF_ID='GRASS' /
&OBST XB= 1880,	1890,	1990,	2000,	91,	102,SURF_ID='GRASS' /
&OBST XB= 1890,	1900,	1990,	2000,	91,	102,SURF_ID='GRASS' /
&OBST XB= 1900,	1910,	1990,	2000,	91,	102,SURF_ID='GRASS' /
&OBST XB= 1910,	1920,	1990,	2000,	91,	102,SURF_ID='GRASS' /
&OBST XB= 1920,	1930,	1990,	2000,	91,	102,SURF_ID='GRASS' /
&OBST XB= 1930,	1940,	1990,	2000,	91,	101,SURF_ID='GRASS' /
&OBST XB= 1940,	1950,	1990,	2000,	91,	101,SURF_ID='GRASS' /
&OBST XB= 1950,	1960,	1990,	2000,	91,	101,SURF_ID='GRASS' /
&OBST XB= 1960,	1970,	1990,	2000,	91,	101,SURF_ID='GRASS' /
&OBST XB= 1970,	1980,	1990,	2000,	91,	101,SURF_ID='GRASS' /
&OBST XB= 1980,	1990,	1990,	2000,	91,	101,SURF_ID='GRASS' /
&OBST XB= 1990,	2000,	1990,	2000,	91,	101,SURF_ID='GRASS' /
&OBST XB= 0,	10,	1980,	1990,	91,	93,SURF_ID='GRASS' /
&OBST XB= 10,	20,	1980,	1990,	91,	93,SURF_ID='GRASS' /
&OBST XB= 20,	30,	1980,	1990,	91,	93,SURF_ID='GRASS' /
&OBST XB= 30,	40,	1980,	1990,	91,	93,SURF_ID='GRASS' /
&OBST XB= 40,	50,	1980,	1990,	91,	94,SURF_ID='GRASS' /
&OBST XB= 50,	60,	1980,	1990,	91,	94,SURF_ID='GRASS' /
&OBST XB= 60,	70,	1980,	1990,	91,	94,SURF_ID='GRASS' /
&OBST XB= 70,	80,	1980,	1990,	91,	94,SURF_ID='GRASS' /
&OBST XB= 80,	90,	1980,	1990,	91,	94,SURF_ID='GRASS' /
&OBST XB= 90,	100,	1980,	1990,	91,	94,SURF_ID='GRASS' /
&OBST XB= 100,	110,	1980,	1990,	91,	94,SURF_ID='GRASS' /
&OBST XB= 110,	120,	1980,	1990,	91,	94,SURF_ID='GRASS' /
&OBST XB= 120,	130,	1980,	1990,	91,	94,SURF_ID='GRASS' /
&OBST XB= 130,	140,	1980,	1990,	91,	94,SURF_ID='GRASS' /
&OBST XB= 140,	150,	1980,	1990,	91,	94,SURF_ID='GRASS' /
&OBST XB= 150,	160,	1980,	1990,	91,	94,SURF_ID='GRASS' /
&OBST XB= 160,	170,	1980,	1990,	91,	94,SURF_ID='GRASS' /
&OBST XB= 170,	180,	1980,	1990,	91,	94,SURF_ID='GRASS' /
&OBST XB= 180,	190,	1980,	1990,	91,	94,SURF_ID='GRASS' /
&OBST XB= 190,	200,	1980,	1990,	91,	94,SURF_ID='GRASS' /
&OBST XB= 200,	210,	1980,	1990,	91,	94,SURF_ID='GRASS' /
&OBST XB= 210,	220,	1980,	1990,	91,	94,SURF_ID='GRASS' /
&OBST XB= 220,	230,	1980,	1990,	91,	94,SURF_ID='GRASS' /
&OBST XB= 230,	240,	1980,	1990,	91,	94,SURF_ID='GRASS' /
&OBST XB= 240,	250,	1980,	1990,	91,	95,SURF_ID='GRASS' /
&OBST XB= 250,	260,	1980,	1990,	91,	95,SURF_ID='GRASS' /
&OBST XB= 260,	270,	1980,	1990,	91,	95,SURF_ID='GRASS' /
&OBST XB= 270,	280,	1980,	1990,	91,	95,SURF_ID='GRASS' /
&OBST XB= 280,	290,	1980,	1990,	91,	95,SURF_ID='GRASS' /
&OBST XB= 290,	300,	1980,	1990,	91,	95,SURF_ID='GRASS' /
&OBST XB= 300,	310,	1980,	1990,	91,	95,SURF_ID='GRASS' /
&OBST XB= 310,	320,	1980,	1990,	91,	95,SURF_ID='GRASS' /
&OBST XB= 320,	330,	1980,	1990,	91,	95,SURF_ID='GRASS' /
&OBST XB= 330,	340,	1980,	1990,	91,	95,SURF_ID='GRASS' /
&OBST XB= 340,	350,	1980,	1990,	91,	95,SURF_ID='GRASS' /
&OBST XB= 350,	360,	1980,	1990,	91,	95,SURF_ID='GRASS' /
&OBST XB= 360,	370,	1980,	1990,	91,	95,SURF_ID='GRASS' /
&OBST XB= 370,	380,	1980,	1990,	91,	95,SURF_ID='GRASS' /
&OBST XB= 380,	390,	1980,	1990,	91,	95,SURF_ID='GRASS' /
&OBST XB= 390,	400,	1980,	1990,	91,	95,SURF_ID='GRASS' /
&OBST XB= 400,	410,	1980,	1990,	91,	95,SURF_ID='GRASS' /
&OBST XB= 410,	420,	1980,	1990,	91,	96,SURF_ID='GRASS' /
&OBST XB= 420,	430,	1980,	1990,	91,	96,SURF_ID='GRASS' /
&OBST XB= 430,	440,	1980,	1990,	91,	96,SURF_ID='GRASS' /
&OBST XB= 440,	450,	1980,	1990,	91,	96,SURF_ID='GRASS' /
&OBST XB= 450,	460,	1980,	1990,	91,	96,SURF_ID='GRASS' /
&OBST XB= 460,	470,	1980,	1990,	91,	96,SURF_ID='GRASS' /
&OBST XB= 470,	480,	1980,	1990,	91,	96,SURF_ID='GRASS' /
&OBST XB= 480,	490,	1980,	1990,	91,	96,SURF_ID='GRASS' /
&OBST XB= 490,	500,	1980,	1990,	91,	96,SURF_ID='GRASS' /
&OBST XB= 500,	510,	1980,	1990,	91,	96,SURF_ID='GRASS' /
&OBST XB= 510,	520,	1980,	1990,	91,	96,SURF_ID='GRASS' /
&OBST XB= 520,	530,	1980,	1990,	91,	96,SURF_ID='GRASS' /
&OBST XB= 530,	540,	1980,	1990,	91,	96,SURF_ID='GRASS' /
&OBST XB= 540,	550,	1980,	1990,	91,	97,SURF_ID='GRASS' /
&OBST XB= 550,	560,	1980,	1990,	91,	97,SURF_ID='GRASS' /
&OBST XB= 560,	570,	1980,	1990,	91,	97,SURF_ID='GRASS' /
&OBST XB= 570,	580,	1980,	1990,	91,	97,SURF_ID='GRASS' /
&OBST XB= 580,	590,	1980,	1990,	91,	97,SURF_ID='GRASS' /
&OBST XB= 590,	600,	1980,	1990,	91,	97,SURF_ID='GRASS' /
&OBST XB= 600,	610,	1980,	1990,	91,	97,SURF_ID='GRASS' /
&OBST XB= 610,	620,	1980,	1990,	91,	97,SURF_ID='GRASS' /
&OBST XB= 620,	630,	1980,	1990,	91,	98,SURF_ID='GRASS' /
&OBST XB= 630,	640,	1980,	1990,	91,	98,SURF_ID='GRASS' /
&OBST XB= 640,	650,	1980,	1990,	91,	99,SURF_ID='GRASS' /
&OBST XB= 650,	660,	1980,	1990,	91,	100,SURF_ID='GRASS' /
&OBST XB= 660,	670,	1980,	1990,	91,	102,SURF_ID='GRASS' /
&OBST XB= 670,	680,	1980,	1990,	91,	103,SURF_ID='GRASS' /
&OBST XB= 680,	690,	1980,	1990,	91,	104,SURF_ID='GRASS' /
&OBST XB= 690,	700,	1980,	1990,	91,	105,SURF_ID='GRASS' /
&OBST XB= 700,	710,	1980,	1990,	91,	106,SURF_ID='GRASS' /
&OBST XB= 710,	720,	1980,	1990,	91,	107,SURF_ID='GRASS' /
&OBST XB= 720,	730,	1980,	1990,	91,	108,SURF_ID='GRASS' /
&OBST XB= 730,	740,	1980,	1990,	91,	110,SURF_ID='GRASS' /
&OBST XB= 740,	750,	1980,	1990,	91,	110,SURF_ID='GRASS' /
&OBST XB= 750,	760,	1980,	1990,	91,	110,SURF_ID='GRASS' /
&OBST XB= 760,	770,	1980,	1990,	91,	110,SURF_ID='GRASS' /
&OBST XB= 770,	780,	1980,	1990,	91,	110,SURF_ID='GRASS' /
&OBST XB= 780,	790,	1980,	1990,	91,	111,SURF_ID='GRASS' /
&OBST XB= 790,	800,	1980,	1990,	91,	114,SURF_ID='GRASS' /
&OBST XB= 800,	810,	1980,	1990,	91,	116,SURF_ID='GRASS' /
&OBST XB= 810,	820,	1980,	1990,	91,	117,SURF_ID='GRASS' /
&OBST XB= 820,	830,	1980,	1990,	91,	117,SURF_ID='GRASS' /
&OBST XB= 830,	840,	1980,	1990,	91,	118,SURF_ID='GRASS' /
&OBST XB= 840,	850,	1980,	1990,	91,	118,SURF_ID='GRASS' /
&OBST XB= 850,	860,	1980,	1990,	91,	118,SURF_ID='GRASS' /
&OBST XB= 860,	870,	1980,	1990,	91,	117,SURF_ID='GRASS' /
&OBST XB= 870,	880,	1980,	1990,	91,	117,SURF_ID='GRASS' /
&OBST XB= 880,	890,	1980,	1990,	91,	117,SURF_ID='GRASS' /
&OBST XB= 890,	900,	1980,	1990,	91,	116,SURF_ID='GRASS' /
&OBST XB= 900,	910,	1980,	1990,	91,	115,SURF_ID='GRASS' /
&OBST XB= 910,	920,	1980,	1990,	91,	114,SURF_ID='GRASS' /
&OBST XB= 920,	930,	1980,	1990,	91,	112,SURF_ID='GRASS' /
&OBST XB= 930,	940,	1980,	1990,	91,	111,SURF_ID='GRASS' /
&OBST XB= 940,	950,	1980,	1990,	91,	110,SURF_ID='GRASS' /
&OBST XB= 950,	960,	1980,	1990,	91,	109,SURF_ID='GRASS' /
&OBST XB= 960,	970,	1980,	1990,	91,	109,SURF_ID='GRASS' /
&OBST XB= 970,	980,	1980,	1990,	91,	109,SURF_ID='GRASS' /
&OBST XB= 980,	990,	1980,	1990,	91,	109,SURF_ID='GRASS' /
&OBST XB= 990,	1000,	1980,	1990,	91,	109,SURF_ID='GRASS' /
&OBST XB= 1000,	1010,	1980,	1990,	91,	108,SURF_ID='GRASS' /
&OBST XB= 1010,	1020,	1980,	1990,	91,	109,SURF_ID='GRASS' /
&OBST XB= 1020,	1030,	1980,	1990,	91,	109,SURF_ID='GRASS' /
&OBST XB= 1030,	1040,	1980,	1990,	91,	108,SURF_ID='GRASS' /
&OBST XB= 1040,	1050,	1980,	1990,	91,	108,SURF_ID='GRASS' /
&OBST XB= 1050,	1060,	1980,	1990,	91,	108,SURF_ID='GRASS' /
&OBST XB= 1060,	1070,	1980,	1990,	91,	108,SURF_ID='GRASS' /
&OBST XB= 1070,	1080,	1980,	1990,	91,	108,SURF_ID='GRASS' /
&OBST XB= 1080,	1090,	1980,	1990,	91,	109,SURF_ID='GRASS' /
&OBST XB= 1090,	1100,	1980,	1990,	91,	109,SURF_ID='GRASS' /
&OBST XB= 1100,	1110,	1980,	1990,	91,	109,SURF_ID='GRASS' /
&OBST XB= 1110,	1120,	1980,	1990,	91,	109,SURF_ID='GRASS' /
&OBST XB= 1120,	1130,	1980,	1990,	91,	109,SURF_ID='GRASS' /
&OBST XB= 1130,	1140,	1980,	1990,	91,	109,SURF_ID='GRASS' /
&OBST XB= 1140,	1150,	1980,	1990,	91,	109,SURF_ID='GRASS' /
&OBST XB= 1150,	1160,	1980,	1990,	91,	109,SURF_ID='GRASS' /
&OBST XB= 1160,	1170,	1980,	1990,	91,	109,SURF_ID='GRASS' /
&OBST XB= 1170,	1180,	1980,	1990,	91,	110,SURF_ID='GRASS' /
&OBST XB= 1180,	1190,	1980,	1990,	91,	111,SURF_ID='GRASS' /
&OBST XB= 1190,	1200,	1980,	1990,	91,	111,SURF_ID='GRASS' /
&OBST XB= 1200,	1210,	1980,	1990,	91,	111,SURF_ID='GRASS' /
&OBST XB= 1210,	1220,	1980,	1990,	91,	111,SURF_ID='GRASS' /
&OBST XB= 1220,	1230,	1980,	1990,	91,	111,SURF_ID='GRASS' /
&OBST XB= 1230,	1240,	1980,	1990,	91,	111,SURF_ID='GRASS' /
&OBST XB= 1240,	1250,	1980,	1990,	91,	111,SURF_ID='GRASS' /
&OBST XB= 1250,	1260,	1980,	1990,	91,	111,SURF_ID='GRASS' /
&OBST XB= 1260,	1270,	1980,	1990,	91,	111,SURF_ID='GRASS' /
&OBST XB= 1270,	1280,	1980,	1990,	91,	111,SURF_ID='GRASS' /
&OBST XB= 1280,	1290,	1980,	1990,	91,	111,SURF_ID='GRASS' /
&OBST XB= 1290,	1300,	1980,	1990,	91,	111,SURF_ID='GRASS' /
&OBST XB= 1300,	1310,	1980,	1990,	91,	111,SURF_ID='GRASS' /
&OBST XB= 1310,	1320,	1980,	1990,	91,	111,SURF_ID='GRASS' /
&OBST XB= 1320,	1330,	1980,	1990,	91,	111,SURF_ID='GRASS' /
&OBST XB= 1330,	1340,	1980,	1990,	91,	110,SURF_ID='GRASS' /
&OBST XB= 1340,	1350,	1980,	1990,	91,	111,SURF_ID='GRASS' /
&OBST XB= 1350,	1360,	1980,	1990,	91,	111,SURF_ID='GRASS' /
&OBST XB= 1360,	1370,	1980,	1990,	91,	111,SURF_ID='GRASS' /
&OBST XB= 1370,	1380,	1980,	1990,	91,	111,SURF_ID='GRASS' /
&OBST XB= 1380,	1390,	1980,	1990,	91,	110,SURF_ID='GRASS' /
&OBST XB= 1390,	1400,	1980,	1990,	91,	110,SURF_ID='GRASS' /
&OBST XB= 1400,	1410,	1980,	1990,	91,	109,SURF_ID='GRASS' /
&OBST XB= 1410,	1420,	1980,	1990,	91,	109,SURF_ID='GRASS' /
&OBST XB= 1420,	1430,	1980,	1990,	91,	108,SURF_ID='GRASS' /
&OBST XB= 1430,	1440,	1980,	1990,	91,	108,SURF_ID='GRASS' /
&OBST XB= 1440,	1450,	1980,	1990,	91,	108,SURF_ID='GRASS' /
&OBST XB= 1450,	1460,	1980,	1990,	91,	108,SURF_ID='GRASS' /
&OBST XB= 1460,	1470,	1980,	1990,	91,	108,SURF_ID='GRASS' /
&OBST XB= 1470,	1480,	1980,	1990,	91,	107,SURF_ID='GRASS' /
&OBST XB= 1480,	1490,	1980,	1990,	91,	107,SURF_ID='GRASS' /
&OBST XB= 1490,	1500,	1980,	1990,	91,	107,SURF_ID='GRASS' /
&OBST XB= 1500,	1510,	1980,	1990,	91,	107,SURF_ID='GRASS' /
&OBST XB= 1510,	1520,	1980,	1990,	91,	106,SURF_ID='GRASS' /
&OBST XB= 1520,	1530,	1980,	1990,	91,	106,SURF_ID='GRASS' /
&OBST XB= 1530,	1540,	1980,	1990,	91,	106,SURF_ID='GRASS' /
&OBST XB= 1540,	1550,	1980,	1990,	91,	106,SURF_ID='GRASS' /
&OBST XB= 1550,	1560,	1980,	1990,	91,	106,SURF_ID='GRASS' /
&OBST XB= 1560,	1570,	1980,	1990,	91,	106,SURF_ID='GRASS' /
&OBST XB= 1570,	1580,	1980,	1990,	91,	106,SURF_ID='GRASS' /
&OBST XB= 1580,	1590,	1980,	1990,	91,	106,SURF_ID='GRASS' /
&OBST XB= 1590,	1600,	1980,	1990,	91,	106,SURF_ID='GRASS' /
&OBST XB= 1600,	1610,	1980,	1990,	91,	106,SURF_ID='GRASS' /
&OBST XB= 1610,	1620,	1980,	1990,	91,	106,SURF_ID='GRASS' /
&OBST XB= 1620,	1630,	1980,	1990,	91,	106,SURF_ID='GRASS' /
&OBST XB= 1630,	1640,	1980,	1990,	91,	105,SURF_ID='GRASS' /
&OBST XB= 1640,	1650,	1980,	1990,	91,	105,SURF_ID='GRASS' /
&OBST XB= 1650,	1660,	1980,	1990,	91,	105,SURF_ID='GRASS' /
&OBST XB= 1660,	1670,	1980,	1990,	91,	105,SURF_ID='GRASS' /
&OBST XB= 1670,	1680,	1980,	1990,	91,	105,SURF_ID='GRASS' /
&OBST XB= 1680,	1690,	1980,	1990,	91,	105,SURF_ID='GRASS' /
&OBST XB= 1690,	1700,	1980,	1990,	91,	105,SURF_ID='GRASS' /
&OBST XB= 1700,	1710,	1980,	1990,	91,	104,SURF_ID='GRASS' /
&OBST XB= 1710,	1720,	1980,	1990,	91,	104,SURF_ID='GRASS' /
&OBST XB= 1720,	1730,	1980,	1990,	91,	103,SURF_ID='GRASS' /
&OBST XB= 1730,	1740,	1980,	1990,	91,	103,SURF_ID='GRASS' /
&OBST XB= 1740,	1750,	1980,	1990,	91,	103,SURF_ID='GRASS' /
&OBST XB= 1750,	1760,	1980,	1990,	91,	103,SURF_ID='GRASS' /
&OBST XB= 1760,	1770,	1980,	1990,	91,	103,SURF_ID='GRASS' /
&OBST XB= 1770,	1780,	1980,	1990,	91,	103,SURF_ID='GRASS' /
&OBST XB= 1780,	1790,	1980,	1990,	91,	103,SURF_ID='GRASS' /
&OBST XB= 1790,	1800,	1980,	1990,	91,	103,SURF_ID='GRASS' /
&OBST XB= 1800,	1810,	1980,	1990,	91,	103,SURF_ID='GRASS' /
&OBST XB= 1810,	1820,	1980,	1990,	91,	102,SURF_ID='GRASS' /
&OBST XB= 1820,	1830,	1980,	1990,	91,	102,SURF_ID='GRASS' /
&OBST XB= 1830,	1840,	1980,	1990,	91,	102,SURF_ID='GRASS' /
&OBST XB= 1840,	1850,	1980,	1990,	91,	102,SURF_ID='GRASS' /
&OBST XB= 1850,	1860,	1980,	1990,	91,	102,SURF_ID='GRASS' /
&OBST XB= 1860,	1870,	1980,	1990,	91,	102,SURF_ID='GRASS' /
&OBST XB= 1870,	1880,	1980,	1990,	91,	102,SURF_ID='GRASS' /
&OBST XB= 1880,	1890,	1980,	1990,	91,	102,SURF_ID='GRASS' /
&OBST XB= 1890,	1900,	1980,	1990,	91,	102,SURF_ID='GRASS' /
&OBST XB= 1900,	1910,	1980,	1990,	91,	101,SURF_ID='GRASS' /
&OBST XB= 1910,	1920,	1980,	1990,	91,	101,SURF_ID='GRASS' /
&OBST XB= 1920,	1930,	1980,	1990,	91,	101,SURF_ID='GRASS' /
&OBST XB= 1930,	1940,	1980,	1990,	91,	101,SURF_ID='GRASS' /
&OBST XB= 1940,	1950,	1980,	1990,	91,	101,SURF_ID='GRASS' /
&OBST XB= 1950,	1960,	1980,	1990,	91,	101,SURF_ID='GRASS' /
&OBST XB= 1960,	1970,	1980,	1990,	91,	101,SURF_ID='GRASS' /
&OBST XB= 1970,	1980,	1980,	1990,	91,	101,SURF_ID='GRASS' /
&OBST XB= 1980,	1990,	1980,	1990,	91,	101,SURF_ID='GRASS' /
&OBST XB= 1990,	2000,	1980,	1990,	91,	101,SURF_ID='GRASS' /
&OBST XB= 0,	10,	1970,	1980,	91,	93,SURF_ID='GRASS' /
&OBST XB= 10,	20,	1970,	1980,	91,	93,SURF_ID='GRASS' /
&OBST XB= 20,	30,	1970,	1980,	91,	93,SURF_ID='GRASS' /
&OBST XB= 30,	40,	1970,	1980,	91,	93,SURF_ID='GRASS' /
&OBST XB= 40,	50,	1970,	1980,	91,	93,SURF_ID='GRASS' /
&OBST XB= 50,	60,	1970,	1980,	91,	93,SURF_ID='GRASS' /
&OBST XB= 60,	70,	1970,	1980,	91,	94,SURF_ID='GRASS' /
&OBST XB= 70,	80,	1970,	1980,	91,	94,SURF_ID='GRASS' /
&OBST XB= 80,	90,	1970,	1980,	91,	94,SURF_ID='GRASS' /
&OBST XB= 90,	100,	1970,	1980,	91,	94,SURF_ID='GRASS' /
&OBST XB= 100,	110,	1970,	1980,	91,	94,SURF_ID='GRASS' /
&OBST XB= 110,	120,	1970,	1980,	91,	94,SURF_ID='GRASS' /
&OBST XB= 120,	130,	1970,	1980,	91,	94,SURF_ID='GRASS' /
&OBST XB= 130,	140,	1970,	1980,	91,	94,SURF_ID='GRASS' /
&OBST XB= 140,	150,	1970,	1980,	91,	94,SURF_ID='GRASS' /
&OBST XB= 150,	160,	1970,	1980,	91,	94,SURF_ID='GRASS' /
&OBST XB= 160,	170,	1970,	1980,	91,	94,SURF_ID='GRASS' /
&OBST XB= 170,	180,	1970,	1980,	91,	94,SURF_ID='GRASS' /
&OBST XB= 180,	190,	1970,	1980,	91,	94,SURF_ID='GRASS' /
&OBST XB= 190,	200,	1970,	1980,	91,	94,SURF_ID='GRASS' /
&OBST XB= 200,	210,	1970,	1980,	91,	94,SURF_ID='GRASS' /
&OBST XB= 210,	220,	1970,	1980,	91,	94,SURF_ID='GRASS' /
&OBST XB= 220,	230,	1970,	1980,	91,	94,SURF_ID='GRASS' /
&OBST XB= 230,	240,	1970,	1980,	91,	94,SURF_ID='GRASS' /
&OBST XB= 240,	250,	1970,	1980,	91,	94,SURF_ID='GRASS' /
&OBST XB= 250,	260,	1970,	1980,	91,	94,SURF_ID='GRASS' /
&OBST XB= 260,	270,	1970,	1980,	91,	95,SURF_ID='GRASS' /
&OBST XB= 270,	280,	1970,	1980,	91,	95,SURF_ID='GRASS' /
&OBST XB= 280,	290,	1970,	1980,	91,	95,SURF_ID='GRASS' /
&OBST XB= 290,	300,	1970,	1980,	91,	95,SURF_ID='GRASS' /
&OBST XB= 300,	310,	1970,	1980,	91,	95,SURF_ID='GRASS' /
&OBST XB= 310,	320,	1970,	1980,	91,	95,SURF_ID='GRASS' /
&OBST XB= 320,	330,	1970,	1980,	91,	95,SURF_ID='GRASS' /
&OBST XB= 330,	340,	1970,	1980,	91,	95,SURF_ID='GRASS' /
&OBST XB= 340,	350,	1970,	1980,	91,	95,SURF_ID='GRASS' /
&OBST XB= 350,	360,	1970,	1980,	91,	95,SURF_ID='GRASS' /
&OBST XB= 360,	370,	1970,	1980,	91,	95,SURF_ID='GRASS' /
&OBST XB= 370,	380,	1970,	1980,	91,	95,SURF_ID='GRASS' /
&OBST XB= 380,	390,	1970,	1980,	91,	95,SURF_ID='GRASS' /
&OBST XB= 390,	400,	1970,	1980,	91,	95,SURF_ID='GRASS' /
&OBST XB= 400,	410,	1970,	1980,	91,	95,SURF_ID='GRASS' /
&OBST XB= 410,	420,	1970,	1980,	91,	95,SURF_ID='GRASS' /
&OBST XB= 420,	430,	1970,	1980,	91,	95,SURF_ID='GRASS' /
&OBST XB= 430,	440,	1970,	1980,	91,	96,SURF_ID='GRASS' /
&OBST XB= 440,	450,	1970,	1980,	91,	96,SURF_ID='GRASS' /
&OBST XB= 450,	460,	1970,	1980,	91,	96,SURF_ID='GRASS' /
&OBST XB= 460,	470,	1970,	1980,	91,	96,SURF_ID='GRASS' /
&OBST XB= 470,	480,	1970,	1980,	91,	96,SURF_ID='GRASS' /
&OBST XB= 480,	490,	1970,	1980,	91,	96,SURF_ID='GRASS' /
&OBST XB= 490,	500,	1970,	1980,	91,	96,SURF_ID='GRASS' /
&OBST XB= 500,	510,	1970,	1980,	91,	96,SURF_ID='GRASS' /
&OBST XB= 510,	520,	1970,	1980,	91,	96,SURF_ID='GRASS' /
&OBST XB= 520,	530,	1970,	1980,	91,	96,SURF_ID='GRASS' /
&OBST XB= 530,	540,	1970,	1980,	91,	96,SURF_ID='GRASS' /
&OBST XB= 540,	550,	1970,	1980,	91,	96,SURF_ID='GRASS' /
&OBST XB= 550,	560,	1970,	1980,	91,	97,SURF_ID='GRASS' /
&OBST XB= 560,	570,	1970,	1980,	91,	97,SURF_ID='GRASS' /
&OBST XB= 570,	580,	1970,	1980,	91,	97,SURF_ID='GRASS' /
&OBST XB= 580,	590,	1970,	1980,	91,	97,SURF_ID='GRASS' /
&OBST XB= 590,	600,	1970,	1980,	91,	97,SURF_ID='GRASS' /
&OBST XB= 600,	610,	1970,	1980,	91,	97,SURF_ID='GRASS' /
&OBST XB= 610,	620,	1970,	1980,	91,	97,SURF_ID='GRASS' /
&OBST XB= 620,	630,	1970,	1980,	91,	97,SURF_ID='GRASS' /
&OBST XB= 630,	640,	1970,	1980,	91,	98,SURF_ID='GRASS' /
&OBST XB= 640,	650,	1970,	1980,	91,	98,SURF_ID='GRASS' /
&OBST XB= 650,	660,	1970,	1980,	91,	99,SURF_ID='GRASS' /
&OBST XB= 660,	670,	1970,	1980,	91,	101,SURF_ID='GRASS' /
&OBST XB= 670,	680,	1970,	1980,	91,	102,SURF_ID='GRASS' /
&OBST XB= 680,	690,	1970,	1980,	91,	104,SURF_ID='GRASS' /
&OBST XB= 690,	700,	1970,	1980,	91,	105,SURF_ID='GRASS' /
&OBST XB= 700,	710,	1970,	1980,	91,	106,SURF_ID='GRASS' /
&OBST XB= 710,	720,	1970,	1980,	91,	106,SURF_ID='GRASS' /
&OBST XB= 720,	730,	1970,	1980,	91,	107,SURF_ID='GRASS' /
&OBST XB= 730,	740,	1970,	1980,	91,	108,SURF_ID='GRASS' /
&OBST XB= 740,	750,	1970,	1980,	91,	109,SURF_ID='GRASS' /
&OBST XB= 750,	760,	1970,	1980,	91,	109,SURF_ID='GRASS' /
&OBST XB= 760,	770,	1970,	1980,	91,	109,SURF_ID='GRASS' /
&OBST XB= 770,	780,	1970,	1980,	91,	109,SURF_ID='GRASS' /
&OBST XB= 780,	790,	1970,	1980,	91,	110,SURF_ID='GRASS' /
&OBST XB= 790,	800,	1970,	1980,	91,	113,SURF_ID='GRASS' /
&OBST XB= 800,	810,	1970,	1980,	91,	114,SURF_ID='GRASS' /
&OBST XB= 810,	820,	1970,	1980,	91,	115,SURF_ID='GRASS' /
&OBST XB= 820,	830,	1970,	1980,	91,	116,SURF_ID='GRASS' /
&OBST XB= 830,	840,	1970,	1980,	91,	116,SURF_ID='GRASS' /
&OBST XB= 840,	850,	1970,	1980,	91,	116,SURF_ID='GRASS' /
&OBST XB= 850,	860,	1970,	1980,	91,	116,SURF_ID='GRASS' /
&OBST XB= 860,	870,	1970,	1980,	91,	115,SURF_ID='GRASS' /
&OBST XB= 870,	880,	1970,	1980,	91,	115,SURF_ID='GRASS' /
&OBST XB= 880,	890,	1970,	1980,	91,	114,SURF_ID='GRASS' /
&OBST XB= 890,	900,	1970,	1980,	91,	113,SURF_ID='GRASS' /
&OBST XB= 900,	910,	1970,	1980,	91,	113,SURF_ID='GRASS' /
&OBST XB= 910,	920,	1970,	1980,	91,	112,SURF_ID='GRASS' /