-TRANSFORM 5 0 0 -5 237610.606666558 3890692.65067012
&HEAD CHID='wind_test3', TITLE = 'wind with terrain example' /
&MISC TERRAIN_CASE=.TRUE., TERRAIN_IMAGE='fire_line2.jpg' /
&TIME T_END=0.0 /

&MESH IJK=150,150,108 XB=0,750,0,750,0,108 /

&CSVF CSVFILE='wind_test3a*exp.csv' /

&SURF ID = 'FBFM2'
            VEG_LEVEL_SET_SPREAD = .TRUE.
	            VEG_LSET_ROS_HEAD  = 0.2
	            VEG_LSET_ROS_FLANK = 0.1
	            VEG_LSET_ROS_BACK  = 0.05
	            VEG_LSET_WIND_EXP = 1
        RGB=255,255,0 /
&SURF ID = 'FBFM1'
	            VEG_LEVEL_SET_SPREAD = .TRUE.
		            VEG_LSET_ROS_HEAD  = 0.44
		            VEG_LSET_ROS_FLANK = 0.15
		            VEG_LSET_ROS_BACK  = 0.025
		            VEG_LSET_WIND_EXP = 1
        RGB=168,112,0 /
&SURF ID = 'FBFM3'
	            VEG_LEVEL_SET_SPREAD = .TRUE.
		            VEG_LSET_ROS_HEAD  = 0.59
		            VEG_LSET_ROS_FLANK = 0.28
		            VEG_LSET_ROS_BACK  = 0.1
		            VEG_LSET_WIND_EXP = 1
        RGB=0,230,169 /
&SURF ID = 'FBFM5'
	            VEG_LEVEL_SET_SPREAD = .TRUE.
		            VEG_LSET_ROS_HEAD  = 5
		            VEG_LSET_ROS_FLANK = 2
		            VEG_LSET_ROS_BACK  = 1
		            VEG_LSET_WIND_EXP = 1
        RGB=38,115,0 /
&SURF ID = 'URBAN'
	            VEG_LEVEL_SET_SPREAD = .TRUE.
		            VEG_LSET_ROS_HEAD  = 0
		            VEG_LSET_ROS_FLANK = 0
		            VEG_LSET_ROS_BACK  = 0
		            VEG_LSET_WIND_EXP = 1
        RGB=0,0,0 /
&SURF ID = 'FBFM8'
	            VEG_LEVEL_SET_SPREAD = .TRUE.
		            VEG_LSET_ROS_HEAD  = 3
		            VEG_LSET_ROS_FLANK = 1.5
		            VEG_LSET_ROS_BACK  = 0.75
		            VEG_LSET_WIND_EXP = 1
        RGB=256,190,190 /
&SURF ID = 'WATER'
	            VEG_LEVEL_SET_SPREAD = .TRUE.
		            VEG_LSET_ROS_HEAD  = 0
		            VEG_LSET_ROS_FLANK = 0
		            VEG_LSET_ROS_BACK  = 0
		            VEG_LSET_WIND_EXP = 1
        RGB=0,0,0 /
&SURF ID = 'BARREN'
	            VEG_LEVEL_SET_SPREAD = .TRUE.
		            VEG_LSET_ROS_HEAD  = 0
		            VEG_LSET_ROS_FLANK = 0
		            VEG_LSET_ROS_BACK  = 0
		            VEG_LSET_WIND_EXP = 1
        RGB=169,0,230 /
&SURF ID = 'AG'
	            VEG_LEVEL_SET_SPREAD = .TRUE.
		            VEG_LSET_ROS_HEAD  = 0
		            VEG_LSET_ROS_FLANK = 0
		            VEG_LSET_ROS_BACK  = 0
		            VEG_LSET_WIND_EXP = 1
        RGB=233,255,190 /
&SURF ID='LINEFIRE',VEGETATION_LSET_IGNITE_TIME = 1,COLOR = 'RED' /

&VENT XB= 225,	230,	65,	70,	86,	86,SURF_ID='LINEFIRE' /
&VENT XB= 225,	230,	70,	75,	86,	86,SURF_ID='LINEFIRE' /
&VENT XB= 225,	230,	75,	80,	87,	87,SURF_ID='LINEFIRE' /
&VENT XB= 225,	230,	80,	85,	87,	87,SURF_ID='LINEFIRE' /
&VENT XB= 225,	230,	85,	90,	87,	87,SURF_ID='LINEFIRE' /
&VENT XB= 225,	230,	90,	95,	87,	87,SURF_ID='LINEFIRE' /
&VENT XB= 225,	230,	95,	100,	87,	87,SURF_ID='LINEFIRE' /
&VENT XB= 230,	235,	95,	100,	86,	86,SURF_ID='LINEFIRE' /
&VENT XB= 230,	235,	100,	105,	87,	87,SURF_ID='LINEFIRE' /
&VENT XB= 230,	235,	105,	110,	87,	87,SURF_ID='LINEFIRE' /
&VENT XB= 230,	235,	110,	115,	87,	87,SURF_ID='LINEFIRE' /
&VENT XB= 230,	235,	115,	120,	88,	88,SURF_ID='LINEFIRE' /
&VENT XB= 230,	235,	120,	125,	88,	88,SURF_ID='LINEFIRE' /
&VENT XB= 230,	235,	125,	130,	88,	88,SURF_ID='LINEFIRE' /
&VENT XB= 230,	235,	130,	135,	88,	88,SURF_ID='LINEFIRE' /
&VENT XB= 230,	235,	135,	140,	88,	88,SURF_ID='LINEFIRE' /
&VENT XB= 235,	240,	135,	140,	87,	87,SURF_ID='LINEFIRE' /
&VENT XB= 235,	240,	140,	145,	87,	87,SURF_ID='LINEFIRE' /
&VENT XB= 235,	240,	145,	150,	87,	87,SURF_ID='LINEFIRE' /
&VENT XB= 235,	240,	150,	155,	87,	87,SURF_ID='LINEFIRE' /
&VENT XB= 235,	240,	155,	160,	87,	87,SURF_ID='LINEFIRE' /
&VENT XB= 235,	240,	160,	165,	87,	87,SURF_ID='LINEFIRE' /
&VENT XB= 235,	240,	165,	170,	88,	88,SURF_ID='LINEFIRE' /
&VENT XB= 235,	240,	170,	175,	88,	88,SURF_ID='LINEFIRE' /
&VENT XB= 235,	240,	175,	180,	89,	89,SURF_ID='LINEFIRE' /
&VENT XB= 240,	245,	175,	180,	88,	88,SURF_ID='LINEFIRE' /
&VENT XB= 240,	245,	180,	185,	89,	89,SURF_ID='LINEFIRE' /
&VENT XB= 240,	245,	185,	190,	89,	89,SURF_ID='LINEFIRE' /
&VENT XB= 240,	245,	190,	195,	90,	90,SURF_ID='LINEFIRE' /
&VENT XB= 240,	245,	195,	200,	90,	90,SURF_ID='LINEFIRE' /
&VENT XB= 240,	245,	200,	205,	90,	90,SURF_ID='LINEFIRE' /
&VENT XB= 240,	245,	205,	210,	90,	90,SURF_ID='LINEFIRE' /
&VENT XB= 240,	245,	210,	215,	90,	90,SURF_ID='LINEFIRE' /
&VENT XB= 240,	245,	215,	220,	90,	90,SURF_ID='LINEFIRE' /
&VENT XB= 240,	245,	220,	225,	90,	90,SURF_ID='LINEFIRE' /
&VENT XB= 240,	245,	225,	230,	91,	91,SURF_ID='LINEFIRE' /
&VENT XB= 240,	245,	230,	235,	91,	91,SURF_ID='LINEFIRE' /
&VENT XB= 245,	250,	230,	235,	90,	90,SURF_ID='LINEFIRE' /
&VENT XB= 245,	250,	235,	240,	90,	90,SURF_ID='LINEFIRE' /
&VENT XB= 245,	250,	240,	245,	91,	91,SURF_ID='LINEFIRE' /
&VENT XB= 245,	250,	245,	250,	91,	91,SURF_ID='LINEFIRE' /
&VENT XB= 245,	250,	250,	255,	91,	91,SURF_ID='LINEFIRE' /
&VENT XB= 245,	250,	255,	260,	91,	91,SURF_ID='LINEFIRE' /
&VENT XB= 245,	250,	260,	265,	91,	91,SURF_ID='LINEFIRE' /
&VENT XB= 245,	250,	265,	270,	91,	91,SURF_ID='LINEFIRE' /
&VENT XB= 245,	250,	270,	275,	91,	91,SURF_ID='LINEFIRE' /
&VENT XB= 245,	250,	275,	280,	91,	91,SURF_ID='LINEFIRE' /
&VENT XB= 245,	250,	280,	285,	91,	91,SURF_ID='LINEFIRE' /
&VENT XB= 245,	250,	285,	290,	91,	91,SURF_ID='LINEFIRE' /
&VENT XB= 245,	250,	290,	295,	91,	91,SURF_ID='LINEFIRE' /
&VENT XB= 250,	255,	290,	295,	91,	91,SURF_ID='LINEFIRE' /
&VENT XB= 250,	255,	295,	300,	91,	91,SURF_ID='LINEFIRE' /
&VENT XB= 250,	255,	300,	305,	91,	91,SURF_ID='LINEFIRE' /
&VENT XB= 250,	255,	305,	310,	90,	90,SURF_ID='LINEFIRE' /
&VENT XB= 250,	255,	310,	315,	90,	90,SURF_ID='LINEFIRE' /
&VENT XB= 250,	255,	315,	320,	89,	89,SURF_ID='LINEFIRE' /
&VENT XB= 250,	255,	320,	325,	89,	89,SURF_ID='LINEFIRE' /
&VENT XB= 250,	255,	325,	330,	88,	88,SURF_ID='LINEFIRE' /
&VENT XB= 250,	255,	330,	335,	88,	88,SURF_ID='LINEFIRE' /
&VENT XB= 245,	250,	335,	340,	88,	88,SURF_ID='LINEFIRE' /
&VENT XB= 250,	255,	335,	340,	88,	88,SURF_ID='LINEFIRE' /
&VENT XB= 245,	250,	340,	345,	88,	88,SURF_ID='LINEFIRE' /
&VENT XB= 245,	250,	345,	350,	87,	87,SURF_ID='LINEFIRE' /
&VENT XB= 245,	250,	350,	355,	87,	87,SURF_ID='LINEFIRE' /
&VENT XB= 245,	250,	355,	360,	86,	86,SURF_ID='LINEFIRE' /
&VENT XB= 245,	250,	360,	365,	86,	86,SURF_ID='LINEFIRE' /
&VENT XB= 245,	250,	365,	370,	85,	85,SURF_ID='LINEFIRE' /
&VENT XB= 240,	245,	370,	375,	85,	85,SURF_ID='LINEFIRE' /
&VENT XB= 245,	250,	370,	375,	85,	85,SURF_ID='LINEFIRE' /
&VENT XB= 240,	245,	375,	380,	85,	85,SURF_ID='LINEFIRE' /
&VENT XB= 240,	245,	380,	385,	85,	85,SURF_ID='LINEFIRE' /
&VENT XB= 240,	245,	385,	390,	85,	85,SURF_ID='LINEFIRE' /
&VENT XB= 240,	245,	390,	395,	85,	85,SURF_ID='LINEFIRE' /
&VENT XB= 240,	245,	395,	400,	85,	85,SURF_ID='LINEFIRE' /
&VENT XB= 240,	245,	400,	405,	85,	85,SURF_ID='LINEFIRE' /
&VENT XB= 235,	240,	405,	410,	86,	86,SURF_ID='LINEFIRE' /
&VENT XB= 240,	245,	405,	410,	85,	85,SURF_ID='LINEFIRE' /
&VENT XB= 235,	240,	410,	415,	86,	86,SURF_ID='LINEFIRE' /
&VENT XB= 235,	240,	415,	420,	86,	86,SURF_ID='LINEFIRE' /
&VENT XB= 235,	240,	420,	425,	86,	86,SURF_ID='LINEFIRE' /
&VENT XB= 235,	240,	425,	430,	86,	86,SURF_ID='LINEFIRE' /
&VENT XB= 235,	240,	430,	435,	86,	86,SURF_ID='LINEFIRE' /
&VENT XB= 230,	235,	435,	440,	87,	87,SURF_ID='LINEFIRE' /
&VENT XB= 235,	240,	435,	440,	86,	86,SURF_ID='LINEFIRE' /
&VENT XB= 230,	235,	440,	445,	87,	87,SURF_ID='LINEFIRE' /
&VENT XB= 225,	230,	445,	450,	87,	87,SURF_ID='LINEFIRE' /
&VENT XB= 230,	235,	445,	450,	87,	87,SURF_ID='LINEFIRE' /
&VENT XB= 220,	225,	450,	455,	87,	87,SURF_ID='LINEFIRE' /
&VENT XB= 225,	230,	450,	455,	87,	87,SURF_ID='LINEFIRE' /
&VENT XB= 215,	220,	455,	460,	87,	87,SURF_ID='LINEFIRE' /
&VENT XB= 220,	225,	455,	460,	87,	87,SURF_ID='LINEFIRE' /
&VENT XB= 210,	215,	460,	465,	87,	87,SURF_ID='LINEFIRE' /
&VENT XB= 215,	220,	460,	465,	86,	86,SURF_ID='LINEFIRE' /
&VENT XB= 205,	210,	465,	470,	87,	87,SURF_ID='LINEFIRE' /
&VENT XB= 210,	215,	465,	470,	86,	86,SURF_ID='LINEFIRE' /
&VENT XB= 200,	205,	470,	475,	86,	86,SURF_ID='LINEFIRE' /
&VENT XB= 205,	210,	470,	475,	86,	86,SURF_ID='LINEFIRE' /
&VENT XB= 195,	200,	475,	480,	86,	86,SURF_ID='LINEFIRE' /
&VENT XB= 200,	205,	475,	480,	86,	86,SURF_ID='LINEFIRE' /
&VENT XB= 190,	195,	480,	485,	86,	86,SURF_ID='LINEFIRE' /
&VENT XB= 195,	200,	480,	485,	86,	86,SURF_ID='LINEFIRE' /
&VENT XB= 185,	190,	485,	490,	86,	86,SURF_ID='LINEFIRE' /
&VENT XB= 190,	195,	485,	490,	86,	86,SURF_ID='LINEFIRE' /
&VENT XB= 180,	185,	490,	495,	86,	86,SURF_ID='LINEFIRE' /
&VENT XB= 185,	190,	490,	495,	86,	86,SURF_ID='LINEFIRE' /
&VENT XB= 175,	180,	495,	500,	86,	86,SURF_ID='LINEFIRE' /
&VENT XB= 180,	185,	495,	500,	86,	86,SURF_ID='LINEFIRE' /
&VENT XB= 170,	175,	500,	505,	85,	85,SURF_ID='LINEFIRE' /
&VENT XB= 175,	180,	500,	505,	85,	85,SURF_ID='LINEFIRE' /
&VENT XB= 165,	170,	505,	510,	85,	85,SURF_ID='LINEFIRE' /
&VENT XB= 170,	175,	505,	510,	85,	85,SURF_ID='LINEFIRE' /
&VENT XB= 160,	165,	510,	515,	84,	84,SURF_ID='LINEFIRE' /
&VENT XB= 165,	170,	510,	515,	84,	84,SURF_ID='LINEFIRE' /
&VENT XB= 155,	160,	515,	520,	84,	84,SURF_ID='LINEFIRE' /
&VENT XB= 160,	165,	515,	520,	84,	84,SURF_ID='LINEFIRE' /
&VENT XB= 150,	155,	520,	525,	83,	83,SURF_ID='LINEFIRE' /
&VENT XB= 155,	160,	520,	525,	83,	83,SURF_ID='LINEFIRE' /
&VENT XB= 145,	150,	525,	530,	83,	83,SURF_ID='LINEFIRE' /
&VENT XB= 150,	155,	525,	530,	83,	83,SURF_ID='LINEFIRE' /
&VENT XB= 140,	145,	530,	535,	81,	81,SURF_ID='LINEFIRE' /
&VENT XB= 145,	150,	530,	535,	82,	82,SURF_ID='LINEFIRE' /
&VENT XB= 135,	140,	535,	540,	79,	79,SURF_ID='LINEFIRE' /
&VENT XB= 140,	145,	535,	540,	80,	80,SURF_ID='LINEFIRE' /
&VENT XB= 130,	135,	540,	545,	76,	76,SURF_ID='LINEFIRE' /
&VENT XB= 135,	140,	540,	545,	77,	77,SURF_ID='LINEFIRE' /

&VENT XB= 0,	5,	0,	5,	94,	94,SURF_ID='FBFM3'/
&OBST XB= 0,	5,	0,	5,	93,	94,SURF_ID='FBFM3'/
&VENT XB= 5,	10,	0,	5,	94,	94,SURF_ID='FBFM3'/
&OBST XB= 5,	10,	0,	5,	93,	94,SURF_ID='FBFM3'/
&VENT XB= 10,	15,	0,	5,	94,	94,SURF_ID='FBFM3'/
&OBST XB= 10,	15,	0,	5,	93,	94,SURF_ID='FBFM3'/
&VENT XB= 15,	20,	0,	5,	94,	94,SURF_ID='FBFM3'/
&OBST XB= 15,	20,	0,	5,	93,	94,SURF_ID='FBFM3'/
&VENT XB= 20,	25,	0,	5,	94,	94,SURF_ID='FBFM3'/
&OBST XB= 20,	25,	0,	5,	93,	94,SURF_ID='FBFM3'/
&VENT XB= 25,	30,	0,	5,	94,	94,SURF_ID='FBFM3'/
&OBST XB= 25,	30,	0,	5,	93,	94,SURF_ID='FBFM3'/
&VENT XB= 30,	35,	0,	5,	94,	94,SURF_ID='FBFM3'/
&OBST XB= 30,	35,	0,	5,	93,	94,SURF_ID='FBFM3'/
&VENT XB= 35,	40,	0,	5,	94,	94,SURF_ID='FBFM3'/
&OBST XB= 35,	40,	0,	5,	93,	94,SURF_ID='FBFM3'/
&VENT XB= 40,	45,	0,	5,	94,	94,SURF_ID='FBFM3'/
&OBST XB= 40,	45,	0,	5,	93,	94,SURF_ID='FBFM3'/
&VENT XB= 45,	50,	0,	5,	94,	94,SURF_ID='FBFM3'/
&OBST XB= 45,	50,	0,	5,	93,	94,SURF_ID='FBFM3'/
&VENT XB= 50,	55,	0,	5,	93,	93,SURF_ID='FBFM1'/
&OBST XB= 50,	55,	0,	5,	92,	93,SURF_ID='FBFM1'/
&VENT XB= 55,	60,	0,	5,	93,	93,SURF_ID='FBFM1'/
&OBST XB= 55,	60,	0,	5,	92,	93,SURF_ID='FBFM1'/
&VENT XB= 60,	65,	0,	5,	93,	93,SURF_ID='FBFM1'/
&OBST XB= 60,	65,	0,	5,	92,	93,SURF_ID='FBFM1'/
&VENT XB= 65,	70,	0,	5,	93,	93,SURF_ID='FBFM1'/
&OBST XB= 65,	70,	0,	5,	92,	93,SURF_ID='FBFM1'/
&VENT XB= 70,	75,	0,	5,	93,	93,SURF_ID='FBFM1'/
&OBST XB= 70,	75,	0,	5,	92,	93,SURF_ID='FBFM1'/
&VENT XB= 75,	80,	0,	5,	93,	93,SURF_ID='FBFM1'/
&OBST XB= 75,	80,	0,	5,	92,	93,SURF_ID='FBFM1'/
&VENT XB= 80,	85,	0,	5,	93,	93,SURF_ID='FBFM1'/
&OBST XB= 80,	85,	0,	5,	92,	93,SURF_ID='FBFM1'/
&VENT XB= 85,	90,	0,	5,	92,	92,SURF_ID='FBFM1'/
&OBST XB= 85,	90,	0,	5,	91,	92,SURF_ID='FBFM1'/
&VENT XB= 90,	95,	0,	5,	92,	92,SURF_ID='FBFM1'/
&OBST XB= 90,	95,	0,	5,	91,	92,SURF_ID='FBFM1'/
&VENT XB= 95,	100,	0,	5,	92,	92,SURF_ID='FBFM1'/
&OBST XB= 95,	100,	0,	5,	91,	92,SURF_ID='FBFM1'/
&VENT XB= 100,	105,	0,	5,	92,	92,SURF_ID='FBFM1'/
&OBST XB= 100,	105,	0,	5,	91,	92,SURF_ID='FBFM1'/
&VENT XB= 105,	110,	0,	5,	92,	92,SURF_ID='FBFM1'/
&OBST XB= 105,	110,	0,	5,	91,	92,SURF_ID='FBFM1'/
&VENT XB= 110,	115,	0,	5,	92,	92,SURF_ID='FBFM1'/
&OBST XB= 110,	115,	0,	5,	91,	92,SURF_ID='FBFM1'/
&VENT XB= 115,	120,	0,	5,	92,	92,SURF_ID='FBFM1'/
&OBST XB= 115,	120,	0,	5,	91,	92,SURF_ID='FBFM1'/
&VENT XB= 120,	125,	0,	5,	91,	91,SURF_ID='FBFM1'/
&OBST XB= 120,	125,	0,	5,	90,	91,SURF_ID='FBFM1'/
&VENT XB= 125,	130,	0,	5,	91,	91,SURF_ID='FBFM1'/
&OBST XB= 125,	130,	0,	5,	90,	91,SURF_ID='FBFM1'/
&VENT XB= 130,	135,	0,	5,	91,	91,SURF_ID='FBFM1'/
&OBST XB= 130,	135,	0,	5,	90,	91,SURF_ID='FBFM1'/
&VENT XB= 135,	140,	0,	5,	91,	91,SURF_ID='FBFM1'/
&OBST XB= 135,	140,	0,	5,	90,	91,SURF_ID='FBFM1'/
&VENT XB= 140,	145,	0,	5,	90,	90,SURF_ID='FBFM3'/
&OBST XB= 140,	145,	0,	5,	89,	90,SURF_ID='FBFM3'/
&VENT XB= 145,	150,	0,	5,	90,	90,SURF_ID='FBFM3'/
&OBST XB= 145,	150,	0,	5,	89,	90,SURF_ID='FBFM3'/
&VENT XB= 150,	155,	0,	5,	90,	90,SURF_ID='FBFM3'/
&OBST XB= 150,	155,	0,	5,	89,	90,SURF_ID='FBFM3'/
&VENT XB= 155,	160,	0,	5,	90,	90,SURF_ID='FBFM3'/
&OBST XB= 155,	160,	0,	5,	89,	90,SURF_ID='FBFM3'/
&VENT XB= 160,	165,	0,	5,	89,	89,SURF_ID='FBFM3'/
&OBST XB= 160,	165,	0,	5,	88,	89,SURF_ID='FBFM3'/
&VENT XB= 165,	170,	0,	5,	89,	89,SURF_ID='FBFM3'/
&OBST XB= 165,	170,	0,	5,	88,	89,SURF_ID='FBFM3'/
&VENT XB= 170,	175,	0,	5,	89,	89,SURF_ID='FBFM2'/
&OBST XB= 170,	175,	0,	5,	88,	89,SURF_ID='FBFM2'/
&VENT XB= 175,	180,	0,	5,	89,	89,SURF_ID='FBFM2'/
&OBST XB= 175,	180,	0,	5,	88,	89,SURF_ID='FBFM2'/
&VENT XB= 180,	185,	0,	5,	88,	88,SURF_ID='FBFM2'/
&OBST XB= 180,	185,	0,	5,	87,	88,SURF_ID='FBFM2'/
&VENT XB= 185,	190,	0,	5,	88,	88,SURF_ID='FBFM2'/
&OBST XB= 185,	190,	0,	5,	87,	88,SURF_ID='FBFM2'/
&VENT XB= 190,	195,	0,	5,	87,	87,SURF_ID='FBFM2'/
&OBST XB= 190,	195,	0,	5,	86,	87,SURF_ID='FBFM2'/
&VENT XB= 195,	200,	0,	5,	87,	87,SURF_ID='FBFM2'/
&OBST XB= 195,	200,	0,	5,	86,	87,SURF_ID='FBFM2'/
&VENT XB= 200,	205,	0,	5,	86,	86,SURF_ID='FBFM1'/
&OBST XB= 200,	205,	0,	5,	85,	86,SURF_ID='FBFM1'/
&VENT XB= 205,	210,	0,	5,	86,	86,SURF_ID='FBFM1'/
&OBST XB= 205,	210,	0,	5,	85,	86,SURF_ID='FBFM1'/
&VENT XB= 210,	215,	0,	5,	85,	85,SURF_ID='FBFM1'/
&OBST XB= 210,	215,	0,	5,	84,	85,SURF_ID='FBFM1'/
&VENT XB= 215,	220,	0,	5,	85,	85,SURF_ID='FBFM1'/
&OBST XB= 215,	220,	0,	5,	84,	85,SURF_ID='FBFM1'/
&VENT XB= 220,	225,	0,	5,	84,	84,SURF_ID='FBFM1'/
&OBST XB= 220,	225,	0,	5,	83,	84,SURF_ID='FBFM1'/
&VENT XB= 225,	230,	0,	5,	83,	83,SURF_ID='FBFM1'/
&OBST XB= 225,	230,	0,	5,	82,	83,SURF_ID='FBFM1'/
&VENT XB= 230,	235,	0,	5,	83,	83,SURF_ID='FBFM1'/
&OBST XB= 230,	235,	0,	5,	82,	83,SURF_ID='FBFM1'/
&VENT XB= 235,	240,	0,	5,	82,	82,SURF_ID='FBFM1'/
&OBST XB= 235,	240,	0,	5,	81,	82,SURF_ID='FBFM1'/
&VENT XB= 240,	245,	0,	5,	81,	81,SURF_ID='FBFM1'/
&OBST XB= 240,	245,	0,	5,	80,	81,SURF_ID='FBFM1'/
&VENT XB= 245,	250,	0,	5,	81,	81,SURF_ID='FBFM1'/
&OBST XB= 245,	250,	0,	5,	80,	81,SURF_ID='FBFM1'/
&VENT XB= 250,	255,	0,	5,	80,	80,SURF_ID='FBFM1'/
&OBST XB= 250,	255,	0,	5,	79,	80,SURF_ID='FBFM1'/
&VENT XB= 255,	260,	0,	5,	80,	80,SURF_ID='FBFM1'/
&OBST XB= 255,	260,	0,	5,	79,	80,SURF_ID='FBFM1'/
&VENT XB= 260,	265,	0,	5,	79,	79,SURF_ID='FBFM3'/
&OBST XB= 260,	265,	0,	5,	78,	79,SURF_ID='FBFM3'/
&VENT XB= 265,	270,	0,	5,	79,	79,SURF_ID='FBFM3'/
&OBST XB= 265,	270,	0,	5,	78,	79,SURF_ID='FBFM3'/
&VENT XB= 270,	275,	0,	5,	78,	78,SURF_ID='FBFM3'/
&OBST XB= 270,	275,	0,	5,	77,	78,SURF_ID='FBFM3'/
&VENT XB= 275,	280,	0,	5,	78,	78,SURF_ID='FBFM3'/
&OBST XB= 275,	280,	0,	5,	77,	78,SURF_ID='FBFM3'/
&VENT XB= 280,	285,	0,	5,	77,	77,SURF_ID='FBFM3'/
&OBST XB= 280,	285,	0,	5,	76,	77,SURF_ID='FBFM3'/
&VENT XB= 285,	290,	0,	5,	77,	77,SURF_ID='FBFM3'/
&OBST XB= 285,	290,	0,	5,	76,	77,SURF_ID='FBFM3'/
&VENT XB= 290,	295,	0,	5,	76,	76,SURF_ID='FBFM3'/
&OBST XB= 290,	295,	0,	5,	75,	76,SURF_ID='FBFM3'/
&VENT XB= 295,	300,	0,	5,	75,	75,SURF_ID='FBFM3'/
&OBST XB= 295,	300,	0,	5,	74,	75,SURF_ID='FBFM3'/
&VENT XB= 300,	305,	0,	5,	73,	73,SURF_ID='FBFM3'/
&OBST XB= 300,	305,	0,	5,	72,	73,SURF_ID='FBFM3'/
&VENT XB= 305,	310,	0,	5,	72,	72,SURF_ID='FBFM3'/
&OBST XB= 305,	310,	0,	5,	71,	72,SURF_ID='FBFM3'/
&VENT XB= 310,	315,	0,	5,	70,	70,SURF_ID='FBFM3'/
&OBST XB= 310,	315,	0,	5,	69,	70,SURF_ID='FBFM3'/
&VENT XB= 315,	320,	0,	5,	68,	68,SURF_ID='FBFM3'/
&OBST XB= 315,	320,	0,	5,	67,	68,SURF_ID='FBFM3'/
&VENT XB= 320,	325,	0,	5,	67,	67,SURF_ID='FBFM2'/
&OBST XB= 320,	325,	0,	5,	66,	67,SURF_ID='FBFM2'/
&VENT XB= 325,	330,	0,	5,	65,	65,SURF_ID='FBFM2'/
&OBST XB= 325,	330,	0,	5,	64,	65,SURF_ID='FBFM2'/
&VENT XB= 330,	335,	0,	5,	64,	64,SURF_ID='FBFM2'/
&OBST XB= 330,	335,	0,	5,	63,	64,SURF_ID='FBFM2'/
&VENT XB= 335,	340,	0,	5,	62,	62,SURF_ID='FBFM2'/
&OBST XB= 335,	340,	0,	5,	61,	62,SURF_ID='FBFM2'/
&VENT XB= 340,	345,	0,	5,	61,	61,SURF_ID='FBFM2'/
&OBST XB= 340,	345,	0,	5,	60,	61,SURF_ID='FBFM2'/
&VENT XB= 345,	350,	0,	5,	60,	60,SURF_ID='FBFM2'/
&OBST XB= 345,	350,	0,	5,	59,	60,SURF_ID='FBFM2'/
&VENT XB= 350,	355,	0,	5,	59,	59,SURF_ID='FBFM3'/
&OBST XB= 350,	355,	0,	5,	58,	59,SURF_ID='FBFM3'/
&VENT XB= 355,	360,	0,	5,	57,	57,SURF_ID='FBFM3'/
&OBST XB= 355,	360,	0,	5,	56,	57,SURF_ID='FBFM3'/
&VENT XB= 360,	365,	0,	5,	57,	57,SURF_ID='FBFM3'/
&OBST XB= 360,	365,	0,	5,	56,	57,SURF_ID='FBFM3'/
&VENT XB= 365,	370,	0,	5,	56,	56,SURF_ID='FBFM3'/
&OBST XB= 365,	370,	0,	5,	55,	56,SURF_ID='FBFM3'/
&VENT XB= 370,	375,	0,	5,	55,	55,SURF_ID='FBFM3'/
&OBST XB= 370,	375,	0,	5,	54,	55,SURF_ID='FBFM3'/
&VENT XB= 375,	380,	0,	5,	54,	54,SURF_ID='FBFM3'/
&OBST XB= 375,	380,	0,	5,	53,	54,SURF_ID='FBFM3'/
&VENT XB= 380,	385,	0,	5,	53,	53,SURF_ID='FBFM2'/
&OBST XB= 380,	385,	0,	5,	52,	53,SURF_ID='FBFM2'/
&VENT XB= 385,	390,	0,	5,	52,	52,SURF_ID='FBFM2'/
&OBST XB= 385,	390,	0,	5,	51,	52,SURF_ID='FBFM2'/
&VENT XB= 390,	395,	0,	5,	51,	51,SURF_ID='FBFM2'/
&OBST XB= 390,	395,	0,	5,	50,	51,SURF_ID='FBFM2'/
&VENT XB= 395,	400,	0,	5,	51,	51,SURF_ID='FBFM2'/
&OBST XB= 395,	400,	0,	5,	50,	51,SURF_ID='FBFM2'/
&VENT XB= 400,	405,	0,	5,	51,	51,SURF_ID='FBFM2'/
&OBST XB= 400,	405,	0,	5,	50,	51,SURF_ID='FBFM2'/
&VENT XB= 405,	410,	0,	5,	51,	51,SURF_ID='FBFM2'/
&OBST XB= 405,	410,	0,	5,	50,	51,SURF_ID='FBFM2'/
&VENT XB= 410,	415,	0,	5,	52,	52,SURF_ID='FBFM8'/
&OBST XB= 410,	415,	0,	5,	51,	52,SURF_ID='FBFM8'/
&VENT XB= 415,	420,	0,	5,	53,	53,SURF_ID='FBFM8'/
&OBST XB= 415,	420,	0,	5,	52,	53,SURF_ID='FBFM8'/
&VENT XB= 420,	425,	0,	5,	54,	54,SURF_ID='FBFM8'/
&OBST XB= 420,	425,	0,	5,	53,	54,SURF_ID='FBFM8'/
&VENT XB= 425,	430,	0,	5,	54,	54,SURF_ID='FBFM8'/
&OBST XB= 425,	430,	0,	5,	53,	54,SURF_ID='FBFM8'/
&VENT XB= 430,	435,	0,	5,	53,	53,SURF_ID='FBFM8'/
&OBST XB= 430,	435,	0,	5,	52,	53,SURF_ID='FBFM8'/
&VENT XB= 435,	440,	0,	5,	53,	53,SURF_ID='FBFM8'/
&OBST XB= 435,	440,	0,	5,	52,	53,SURF_ID='FBFM8'/
&VENT XB= 440,	445,	0,	5,	53,	53,SURF_ID='FBFM2'/
&OBST XB= 440,	445,	0,	5,	52,	53,SURF_ID='FBFM2'/
&VENT XB= 445,	450,	0,	5,	54,	54,SURF_ID='FBFM2'/
&OBST XB= 445,	450,	0,	5,	53,	54,SURF_ID='FBFM2'/
&VENT XB= 450,	455,	0,	5,	54,	54,SURF_ID='FBFM2'/
&OBST XB= 450,	455,	0,	5,	53,	54,SURF_ID='FBFM2'/
&VENT XB= 455,	460,	0,	5,	54,	54,SURF_ID='FBFM2'/
&OBST XB= 455,	460,	0,	5,	53,	54,SURF_ID='FBFM2'/
&VENT XB= 460,	465,	0,	5,	56,	56,SURF_ID='FBFM2'/
&OBST XB= 460,	465,	0,	5,	55,	56,SURF_ID='FBFM2'/
&VENT XB= 465,	470,	0,	5,	58,	58,SURF_ID='FBFM2'/
&OBST XB= 465,	470,	0,	5,	57,	58,SURF_ID='FBFM2'/
&VENT XB= 470,	475,	0,	5,	59,	59,SURF_ID='FBFM2'/
&OBST XB= 470,	475,	0,	5,	58,	59,SURF_ID='FBFM2'/
&VENT XB= 475,	480,	0,	5,	61,	61,SURF_ID='FBFM2'/
&OBST XB= 475,	480,	0,	5,	60,	61,SURF_ID='FBFM2'/
&VENT XB= 480,	485,	0,	5,	62,	62,SURF_ID='FBFM2'/
&OBST XB= 480,	485,	0,	5,	61,	62,SURF_ID='FBFM2'/
&VENT XB= 485,	490,	0,	5,	64,	64,SURF_ID='FBFM2'/
&OBST XB= 485,	490,	0,	5,	63,	64,SURF_ID='FBFM2'/
&VENT XB= 490,	495,	0,	5,	66,	66,SURF_ID='FBFM2'/
&OBST XB= 490,	495,	0,	5,	65,	66,SURF_ID='FBFM2'/
&VENT XB= 495,	500,	0,	5,	67,	67,SURF_ID='FBFM2'/
&OBST XB= 495,	500,	0,	5,	66,	67,SURF_ID='FBFM2'/
&VENT XB= 500,	505,	0,	5,	69,	69,SURF_ID='FBFM2'/
&OBST XB= 500,	505,	0,	5,	68,	69,SURF_ID='FBFM2'/
&VENT XB= 505,	510,	0,	5,	72,	72,SURF_ID='FBFM2'/
&OBST XB= 505,	510,	0,	5,	71,	72,SURF_ID='FBFM2'/
&VENT XB= 510,	515,	0,	5,	76,	76,SURF_ID='FBFM2'/
&OBST XB= 510,	515,	0,	5,	75,	76,SURF_ID='FBFM2'/
&VENT XB= 515,	520,	0,	5,	77,	77,SURF_ID='FBFM2'/
&OBST XB= 515,	520,	0,	5,	76,	77,SURF_ID='FBFM2'/
&VENT XB= 520,	525,	0,	5,	78,	78,SURF_ID='FBFM2'/
&OBST XB= 520,	525,	0,	5,	77,	78,SURF_ID='FBFM2'/
&VENT XB= 525,	530,	0,	5,	79,	79,SURF_ID='FBFM2'/
&OBST XB= 525,	530,	0,	5,	78,	79,SURF_ID='FBFM2'/
&VENT XB= 530,	535,	0,	5,	80,	80,SURF_ID='FBFM2'/
&OBST XB= 530,	535,	0,	5,	79,	80,SURF_ID='FBFM2'/
&VENT XB= 535,	540,	0,	5,	81,	81,SURF_ID='FBFM2'/
&OBST XB= 535,	540,	0,	5,	80,	81,SURF_ID='FBFM2'/
&VENT XB= 540,	545,	0,	5,	82,	82,SURF_ID='FBFM2'/
&OBST XB= 540,	545,	0,	5,	81,	82,SURF_ID='FBFM2'/
&VENT XB= 545,	550,	0,	5,	83,	83,SURF_ID='FBFM2'/
&OBST XB= 545,	550,	0,	5,	82,	83,SURF_ID='FBFM2'/
&VENT XB= 550,	555,	0,	5,	84,	84,SURF_ID='FBFM2'/
&OBST XB= 550,	555,	0,	5,	83,	84,SURF_ID='FBFM2'/
&VENT XB= 555,	560,	0,	5,	84,	84,SURF_ID='FBFM2'/
&OBST XB= 555,	560,	0,	5,	83,	84,SURF_ID='FBFM2'/
&VENT XB= 560,	565,	0,	5,	85,	85,SURF_ID='FBFM2'/
&OBST XB= 560,	565,	0,	5,	84,	85,SURF_ID='FBFM2'/
&VENT XB= 565,	570,	0,	5,	85,	85,SURF_ID='FBFM2'/
&OBST XB= 565,	570,	0,	5,	84,	85,SURF_ID='FBFM2'/
&VENT XB= 570,	575,	0,	5,	85,	85,SURF_ID='FBFM2'/
&OBST XB= 570,	575,	0,	5,	84,	85,SURF_ID='FBFM2'/
&VENT XB= 575,	580,	0,	5,	84,	84,SURF_ID='FBFM2'/
&OBST XB= 575,	580,	0,	5,	83,	84,SURF_ID='FBFM2'/
&VENT XB= 580,	585,	0,	5,	84,	84,SURF_ID='FBFM2'/
&OBST XB= 580,	585,	0,	5,	83,	84,SURF_ID='FBFM2'/
&VENT XB= 585,	590,	0,	5,	83,	83,SURF_ID='FBFM2'/
&OBST XB= 585,	590,	0,	5,	82,	83,SURF_ID='FBFM2'/
&VENT XB= 590,	595,	0,	5,	83,	83,SURF_ID='FBFM2'/
&OBST XB= 590,	595,	0,	5,	82,	83,SURF_ID='FBFM2'/
&VENT XB= 595,	600,	0,	5,	83,	83,SURF_ID='FBFM2'/
&OBST XB= 595,	600,	0,	5,	82,	83,SURF_ID='FBFM2'/
&VENT XB= 600,	605,	0,	5,	82,	82,SURF_ID='FBFM2'/
&OBST XB= 600,	605,	0,	5,	81,	82,SURF_ID='FBFM2'/
&VENT XB= 605,	610,	0,	5,	83,	83,SURF_ID='FBFM2'/
&OBST XB= 605,	610,	0,	5,	82,	83,SURF_ID='FBFM2'/
&VENT XB= 610,	615,	0,	5,	83,	83,SURF_ID='FBFM2'/
&OBST XB= 610,	615,	0,	5,	82,	83,SURF_ID='FBFM2'/
&VENT XB= 615,	620,	0,	5,	83,	83,SURF_ID='FBFM2'/
&OBST XB= 615,	620,	0,	5,	82,	83,SURF_ID='FBFM2'/
&VENT XB= 620,	625,	0,	5,	83,	83,SURF_ID='FBFM2'/
&OBST XB= 620,	625,	0,	5,	82,	83,SURF_ID='FBFM2'/
&VENT XB= 625,	630,	0,	5,	82,	82,SURF_ID='FBFM2'/
&OBST XB= 625,	630,	0,	5,	81,	82,SURF_ID='FBFM2'/
&VENT XB= 630,	635,	0,	5,	82,	82,SURF_ID='FBFM2'/
&OBST XB= 630,	635,	0,	5,	81,	82,SURF_ID='FBFM2'/
&VENT XB= 635,	640,	0,	5,	81,	81,SURF_ID='FBFM2'/
&OBST XB= 635,	640,	0,	5,	80,	81,SURF_ID='FBFM2'/
&VENT XB= 640,	645,	0,	5,	80,	80,SURF_ID='FBFM2'/
&OBST XB= 640,	645,	0,	5,	79,	80,SURF_ID='FBFM2'/
&VENT XB= 645,	650,	0,	5,	79,	79,SURF_ID='FBFM2'/
&OBST XB= 645,	650,	0,	5,	78,	79,SURF_ID='FBFM2'/
&VENT XB= 650,	655,	0,	5,	78,	78,SURF_ID='FBFM1'/
&OBST XB= 650,	655,	0,	5,	77,	78,SURF_ID='FBFM1'/
&VENT XB= 655,	660,	0,	5,	77,	77,SURF_ID='FBFM1'/
&OBST XB= 655,	660,	0,	5,	76,	77,SURF_ID='FBFM1'/
&VENT XB= 660,	665,	0,	5,	76,	76,SURF_ID='FBFM1'/
&OBST XB= 660,	665,	0,	5,	75,	76,SURF_ID='FBFM1'/
&VENT XB= 665,	670,	0,	5,	76,	76,SURF_ID='FBFM1'/
&OBST XB= 665,	670,	0,	5,	75,	76,SURF_ID='FBFM1'/
&VENT XB= 670,	675,	0,	5,	76,	76,SURF_ID='FBFM1'/
&OBST XB= 670,	675,	0,	5,	75,	76,SURF_ID='FBFM1'/
&VENT XB= 675,	680,	0,	5,	76,	76,SURF_ID='FBFM1'/
&OBST XB= 675,	680,	0,	5,	75,	76,SURF_ID='FBFM1'/
&VENT XB= 680,	685,	0,	5,	77,	77,SURF_ID='FBFM3'/
&OBST XB= 680,	685,	0,	5,	76,	77,SURF_ID='FBFM3'/
&VENT XB= 685,	690,	0,	5,	78,	78,SURF_ID='FBFM3'/
&OBST XB= 685,	690,	0,	5,	77,	78,SURF_ID='FBFM3'/
&VENT XB= 690,	695,	0,	5,	79,	79,SURF_ID='FBFM3'/
&OBST XB= 690,	695,	0,	5,	78,	79,SURF_ID='FBFM3'/
&VENT XB= 695,	700,	0,	5,	80,	80,SURF_ID='FBFM3'/
&OBST XB= 695,	700,	0,	5,	79,	80,SURF_ID='FBFM3'/
&VENT XB= 700,	705,	0,	5,	81,	81,SURF_ID='FBFM3'/
&OBST XB= 700,	705,	0,	5,	80,	81,SURF_ID='FBFM3'/
&VENT XB= 705,	710,	0,	5,	81,	81,SURF_ID='FBFM3'/
&OBST XB= 705,	710,	0,	5,	80,	81,SURF_ID='FBFM3'/
&VENT XB= 710,	715,	0,	5,	82,	82,SURF_ID='FBFM2'/
&OBST XB= 710,	715,	0,	5,	81,	82,SURF_ID='FBFM2'/
&VENT XB= 715,	720,	0,	5,	83,	83,SURF_ID='FBFM2'/
&OBST XB= 715,	720,	0,	5,	82,	83,SURF_ID='FBFM2'/
&VENT XB= 720,	725,	0,	5,	83,	83,SURF_ID='FBFM2'/
&OBST XB= 720,	725,	0,	5,	82,	83,SURF_ID='FBFM2'/
&VENT XB= 725,	730,	0,	5,	84,	84,SURF_ID='FBFM2'/
&OBST XB= 725,	730,	0,	5,	83,	84,SURF_ID='FBFM2'/
&VENT XB= 730,	735,	0,	5,	85,	85,SURF_ID='FBFM2'/
&OBST XB= 730,	735,	0,	5,	84,	85,SURF_ID='FBFM2'/
&VENT XB= 735,	740,	0,	5,	85,	85,SURF_ID='FBFM2'/
&OBST XB= 735,	740,	0,	5,	84,	85,SURF_ID='FBFM2'/
&VENT XB= 740,	745,	0,	5,	86,	86,SURF_ID='FBFM8'/
&OBST XB= 740,	745,	0,	5,	85,	86,SURF_ID='FBFM8'/
&VENT XB= 745,	750,	0,	5,	86,	86,SURF_ID='FBFM8'/
&OBST XB= 745,	750,	0,	5,	85,	86,SURF_ID='FBFM8'/
&VENT XB= 0,	5,	5,	10,	94,	94,SURF_ID='FBFM1'/
&OBST XB= 0,	5,	5,	10,	93,	94,SURF_ID='FBFM1'/
&VENT XB= 5,	10,	5,	10,	94,	94,SURF_ID='FBFM1'/
&OBST XB= 5,	10,	5,	10,	93,	94,SURF_ID='FBFM1'/
&VENT XB= 10,	15,	5,	10,	94,	94,SURF_ID='FBFM1'/
&OBST XB= 10,	15,	5,	10,	93,	94,SURF_ID='FBFM1'/
&VENT XB= 15,	20,	5,	10,	94,	94,SURF_ID='FBFM1'/
&OBST XB= 15,	20,	5,	10,	93,	94,SURF_ID='FBFM1'/
&VENT XB= 20,	25,	5,	10,	94,	94,SURF_ID='FBFM1'/
&OBST XB= 20,	25,	5,	10,	93,	94,SURF_ID='FBFM1'/
&VENT XB= 25,	30,	5,	10,	94,	94,SURF_ID='FBFM1'/
&OBST XB= 25,	30,	5,	10,	93,	94,SURF_ID='FBFM1'/
&VENT XB= 30,	35,	5,	10,	94,	94,SURF_ID='FBFM1'/
&OBST XB= 30,	35,	5,	10,	93,	94,SURF_ID='FBFM1'/
&VENT XB= 35,	40,	5,	10,	94,	94,SURF_ID='FBFM1'/
&OBST XB= 35,	40,	5,	10,	93,	94,SURF_ID='FBFM1'/
&VENT XB= 40,	45,	5,	10,	94,	94,SURF_ID='FBFM1'/
&OBST XB= 40,	45,	5,	10,	93,	94,SURF_ID='FBFM1'/
&VENT XB= 45,	50,	5,	10,	94,	94,SURF_ID='FBFM1'/
&OBST XB= 45,	50,	5,	10,	93,	94,SURF_ID='FBFM1'/
&VENT XB= 50,	55,	5,	10,	94,	94,SURF_ID='FBFM1'/
&OBST XB= 50,	55,	5,	10,	93,	94,SURF_ID='FBFM1'/
&VENT XB= 55,	60,	5,	10,	94,	94,SURF_ID='FBFM1'/
&OBST XB= 55,	60,	5,	10,	93,	94,SURF_ID='FBFM1'/
&VENT XB= 60,	65,	5,	10,	93,	93,SURF_ID='FBFM1'/
&OBST XB= 60,	65,	5,	10,	92,	93,SURF_ID='FBFM1'/
&VENT XB= 65,	70,	5,	10,	93,	93,SURF_ID='FBFM1'/
&OBST XB= 65,	70,	5,	10,	92,	93,SURF_ID='FBFM1'/
&VENT XB= 70,	75,	5,	10,	93,	93,SURF_ID='FBFM1'/
&OBST XB= 70,	75,	5,	10,	92,	93,SURF_ID='FBFM1'/
&VENT XB= 75,	80,	5,	10,	93,	93,SURF_ID='FBFM1'/
&OBST XB= 75,	80,	5,	10,	92,	93,SURF_ID='FBFM1'/
&VENT XB= 80,	85,	5,	10,	93,	93,SURF_ID='FBFM1'/
&OBST XB= 80,	85,	5,	10,	92,	93,SURF_ID='FBFM1'/
&VENT XB= 85,	90,	5,	10,	93,	93,SURF_ID='FBFM1'/
&OBST XB= 85,	90,	5,	10,	92,	93,SURF_ID='FBFM1'/
&VENT XB= 90,	95,	5,	10,	93,	93,SURF_ID='FBFM1'/
&OBST XB= 90,	95,	5,	10,	92,	93,SURF_ID='FBFM1'/
&VENT XB= 95,	100,	5,	10,	92,	92,SURF_ID='FBFM1'/
&OBST XB= 95,	100,	5,	10,	91,	92,SURF_ID='FBFM1'/
&VENT XB= 100,	105,	5,	10,	92,	92,SURF_ID='FBFM1'/
&OBST XB= 100,	105,	5,	10,	91,	92,SURF_ID='FBFM1'/
&VENT XB= 105,	110,	5,	10,	92,	92,SURF_ID='FBFM1'/
&OBST XB= 105,	110,	5,	10,	91,	92,SURF_ID='FBFM1'/
&VENT XB= 110,	115,	5,	10,	92,	92,SURF_ID='FBFM1'/
&OBST XB= 110,	115,	5,	10,	91,	92,SURF_ID='FBFM1'/
&VENT XB= 115,	120,	5,	10,	92,	92,SURF_ID='FBFM1'/
&OBST XB= 115,	120,	5,	10,	91,	92,SURF_ID='FBFM1'/
&VENT XB= 120,	125,	5,	10,	92,	92,SURF_ID='FBFM1'/
&OBST XB= 120,	125,	5,	10,	91,	92,SURF_ID='FBFM1'/
&VENT XB= 125,	130,	5,	10,	92,	92,SURF_ID='FBFM1'/
&OBST XB= 125,	130,	5,	10,	91,	92,SURF_ID='FBFM1'/
&VENT XB= 130,	135,	5,	10,	91,	91,SURF_ID='FBFM1'/
&OBST XB= 130,	135,	5,	10,	90,	91,SURF_ID='FBFM1'/
&VENT XB= 135,	140,	5,	10,	91,	91,SURF_ID='FBFM1'/
&OBST XB= 135,	140,	5,	10,	90,	91,SURF_ID='FBFM1'/
&VENT XB= 140,	145,	5,	10,	91,	91,SURF_ID='FBFM1'/
&OBST XB= 140,	145,	5,	10,	90,	91,SURF_ID='FBFM1'/
&VENT XB= 145,	150,	5,	10,	90,	90,SURF_ID='FBFM1'/
&OBST XB= 145,	150,	5,	10,	89,	90,SURF_ID='FBFM1'/
&VENT XB= 150,	155,	5,	10,	90,	90,SURF_ID='FBFM1'/
&OBST XB= 150,	155,	5,	10,	89,	90,SURF_ID='FBFM1'/
&VENT XB= 155,	160,	5,	10,	90,	90,SURF_ID='FBFM1'/
&OBST XB= 155,	160,	5,	10,	89,	90,SURF_ID='FBFM1'/
&VENT XB= 160,	165,	5,	10,	90,	90,SURF_ID='FBFM1'/
&OBST XB= 160,	165,	5,	10,	89,	90,SURF_ID='FBFM1'/
&VENT XB= 165,	170,	5,	10,	89,	89,SURF_ID='FBFM1'/
&OBST XB= 165,	170,	5,	10,	88,	89,SURF_ID='FBFM1'/
&VENT XB= 170,	175,	5,	10,	89,	89,SURF_ID='FBFM1'/
&OBST XB= 170,	175,	5,	10,	88,	89,SURF_ID='FBFM1'/
&VENT XB= 175,	180,	5,	10,	89,	89,SURF_ID='FBFM1'/
&OBST XB= 175,	180,	5,	10,	88,	89,SURF_ID='FBFM1'/
&VENT XB= 180,	185,	5,	10,	88,	88,SURF_ID='FBFM1'/
&OBST XB= 180,	185,	5,	10,	87,	88,SURF_ID='FBFM1'/
&VENT XB= 185,	190,	5,	10,	88,	88,SURF_ID='FBFM1'/
&OBST XB= 185,	190,	5,	10,	87,	88,SURF_ID='FBFM1'/
&VENT XB= 190,	195,	5,	10,	87,	87,SURF_ID='FBFM1'/
&OBST XB= 190,	195,	5,	10,	86,	87,SURF_ID='FBFM1'/
&VENT XB= 195,	200,	5,	10,	87,	87,SURF_ID='FBFM1'/
&OBST XB= 195,	200,	5,	10,	86,	87,SURF_ID='FBFM1'/
&VENT XB= 200,	205,	5,	10,	86,	86,SURF_ID='FBFM1'/
&OBST XB= 200,	205,	5,	10,	85,	86,SURF_ID='FBFM1'/
&VENT XB= 205,	210,	5,	10,	86,	86,SURF_ID='FBFM1'/
&OBST XB= 205,	210,	5,	10,	85,	86,SURF_ID='FBFM1'/
&VENT XB= 210,	215,	5,	10,	85,	85,SURF_ID='FBFM1'/
&OBST XB= 210,	215,	5,	10,	84,	85,SURF_ID='FBFM1'/
&VENT XB= 215,	220,	5,	10,	84,	84,SURF_ID='FBFM1'/
&OBST XB= 215,	220,	5,	10,	83,	84,SURF_ID='FBFM1'/
&VENT XB= 220,	225,	5,	10,	84,	84,SURF_ID='FBFM1'/
&OBST XB= 220,	225,	5,	10,	83,	84,SURF_ID='FBFM1'/
&VENT XB= 225,	230,	5,	10,	83,	83,SURF_ID='FBFM1'/
&OBST XB= 225,	230,	5,	10,	82,	83,SURF_ID='FBFM1'/
&VENT XB= 230,	235,	5,	10,	82,	82,SURF_ID='FBFM3'/
&OBST XB= 230,	235,	5,	10,	81,	82,SURF_ID='FBFM3'/
&VENT XB= 235,	240,	5,	10,	81,	81,SURF_ID='FBFM3'/
&OBST XB= 235,	240,	5,	10,	80,	81,SURF_ID='FBFM3'/
&VENT XB= 240,	245,	5,	10,	81,	81,SURF_ID='FBFM3'/
&OBST XB= 240,	245,	5,	10,	80,	81,SURF_ID='FBFM3'/
&VENT XB= 245,	250,	5,	10,	80,	80,SURF_ID='FBFM3'/
&OBST XB= 245,	250,	5,	10,	79,	80,SURF_ID='FBFM3'/
&VENT XB= 250,	255,	5,	10,	79,	79,SURF_ID='FBFM3'/
&OBST XB= 250,	255,	5,	10,	78,	79,SURF_ID='FBFM3'/
&VENT XB= 255,	260,	5,	10,	79,	79,SURF_ID='FBFM3'/
&OBST XB= 255,	260,	5,	10,	78,	79,SURF_ID='FBFM3'/
&VENT XB= 260,	265,	5,	10,	78,	78,SURF_ID='FBFM3'/
&OBST XB= 260,	265,	5,	10,	77,	78,SURF_ID='FBFM3'/
&VENT XB= 265,	270,	5,	10,	78,	78,SURF_ID='FBFM3'/