&HEAD CHID='sphere_fire_demo', TITLE='Demo of Matlab convhulln, created by sphere_fire_demo.m' /
  
&MESH IJK=32,32,32, XB=-2,2,-2,2,0,4 /
  
&TIME T_END=10./
  
&REAC FUEL='PROPANE', SOOT_YIELD=0.01/
  
&VENT XB=-1,1,-1,1,0,0, SURF_ID='fire' /
&VENT MB='ZMAX', SURF_ID='OPEN' /
&VENT MB='YMIN', SURF_ID='OPEN' /
&VENT MB='YMAX', SURF_ID='OPEN' /
&VENT MB='XMIN', SURF_ID='OPEN' /
&VENT MB='XMAX', SURF_ID='OPEN' /
  
&SURF ID='fire', HRRPUA=1000., COLOR='RED'/
&SURF ID='sphere', COLOR='GREEN'/
  
&SLCF PBY=0, QUANTITY='VELOCITY', VECTOR=.TRUE. /
&SLCF PBY=0, QUANTITY='TEMPERATURE', CELL_CENTERED=.TRUE. /
&SLCF PBY=0, QUANTITY='DIVERGENCE', CELL_CENTERED=.TRUE. /
&SLCF PBY=0, QUANTITY='MASS FRACTION', SPEC_ID='PROPANE', CELL_CENTERED=.TRUE. /
  
&BNDE QUANTITY='GAS TEMPERATURE' /
  
&GEOM ID='sphere', SURF_ID='sphere',
      VERTS=0,0,3,
            0,0,3,
            0,0,3,
            0,0,3,
            0,0,3,
            0,0,3,
            0,0,3,
            0,0,3,
            0,0,3,
            0,0,3,
            0,0,3,
            0,0,3,
            0,0,3,
            0,0,3,
            0,0,3,
            0,0,3,
            0,0,3,
            0,0,3,
            0,0,3,
            0,0,3,
            0,0,3,
            0,0,3,
            0,0,3,
            0,0,3,
            0,0,3,
            0,0,3,
            0,0,3,
            0,0,3,
            0,0,3,
            0,0,3,
            0,0,3,
            0,0,3,
            0.10117,0,2.9949,
            0.099097,0.020365,2.9949,
            0.092969,0.039896,2.9949,
            0.083035,0.057794,2.9949,
            0.069702,0.073326,2.9949,
            0.053514,0.085856,2.9949,
            0.035136,0.094871,2.9949,
            0.01532,0.1,2.9949,
            -0.0051241,0.10104,2.9949,
            -0.025358,0.097939,2.9949,
            -0.044554,0.090829,2.9949,
            -0.061926,0.080001,2.9949,
            -0.076762,0.065898,2.9949,
            -0.088456,0.049097,2.9949,
            -0.096529,0.030286,2.9949,
            -0.10065,0.010235,2.9949,
            -0.10065,-0.010235,2.9949,
            -0.096529,-0.030286,2.9949,
            -0.088456,-0.049097,2.9949,
            -0.076762,-0.065898,2.9949,
            -0.061926,-0.080001,2.9949,
            -0.044554,-0.090829,2.9949,
            -0.025358,-0.097939,2.9949,
            -0.0051241,-0.10104,2.9949,
            0.01532,-0.1,2.9949,
            0.035136,-0.094871,2.9949,
            0.053514,-0.085856,2.9949,
            0.069702,-0.073326,2.9949,
            0.083035,-0.057794,2.9949,
            0.092969,-0.039896,2.9949,
            0.099097,-0.020365,2.9949,
            0.10117,-2.4779e-17,2.9949,
            0.2013,0,2.9795,
            0.19718,0.040521,2.9795,
            0.18498,0.079383,2.9795,
            0.16522,0.115,2.9795,
            0.13869,0.1459,2.9795,
            0.10648,0.17083,2.9795,
            0.069912,0.18877,2.9795,
            0.030482,0.19898,2.9795,
            -0.010196,0.20104,2.9795,
            -0.050456,0.19487,2.9795,
            -0.088651,0.18073,2.9795,
            -0.12322,0.15918,2.9795,
            -0.15274,0.13112,2.9795,
            -0.176,0.097691,2.9795,
            -0.19207,0.060261,2.9795,
            -0.20027,0.020365,2.9795,
            -0.20027,-0.020365,2.9795,
            -0.19207,-0.060261,2.9795,
            -0.176,-0.097691,2.9795,
            -0.15274,-0.13112,2.9795,
            -0.12322,-0.15918,2.9795,
            -0.088651,-0.18073,2.9795,
            -0.050456,-0.19487,2.9795,
            -0.010196,-0.20104,2.9795,
            0.030482,-0.19898,2.9795,
            0.069912,-0.18877,2.9795,
            0.10648,-0.17083,2.9795,
            0.13869,-0.1459,2.9795,
            0.16522,-0.115,2.9795,
            0.18498,-0.079383,2.9795,
            0.19718,-0.040521,2.9795,
            0.2013,-4.9304e-17,2.9795,
            0.29936,0,2.9541,
            0.29324,0.060261,2.9541,
            0.2751,0.11806,2.9541,
            0.24571,0.17102,2.9541,
            0.20625,0.21698,2.9541,
            0.15835,0.25405,2.9541,
            0.10397,0.28073,2.9541,
            0.045332,0.29591,2.9541,
            -0.015162,0.29898,2.9541,
            -0.075036,0.28981,2.9541,
            -0.13184,0.26877,2.9541,
            -0.18324,0.23673,2.9541,
            -0.22714,0.195,2.9541,
            -0.26175,0.14528,2.9541,
            -0.28563,0.089618,2.9541,
            -0.29783,0.030286,2.9541,
            -0.29783,-0.030286,2.9541,
            -0.28563,-0.089618,2.9541,
            -0.26175,-0.14528,2.9541,
            -0.22714,-0.195,2.9541,
            -0.18324,-0.23673,2.9541,
            -0.13184,-0.26877,2.9541,
            -0.075036,-0.28981,2.9541,
            -0.015162,-0.29898,2.9541,
            0.045332,-0.29591,2.9541,
            0.10397,-0.28073,2.9541,
            0.15835,-0.25405,2.9541,
            0.20625,-0.21698,2.9541,
            0.24571,-0.17102,2.9541,
            0.2751,-0.11806,2.9541,
            0.29324,-0.060261,2.9541,
            0.29936,-7.3323e-17,2.9541,
            0.39436,0,2.919,
            0.38628,0.079383,2.919,
            0.3624,0.15552,2.919,
            0.32367,0.22528,2.919,
            0.2717,0.28583,2.919,
            0.2086,0.33467,2.919,
            0.13696,0.36981,2.919,
            0.059716,0.38981,2.919,
            -0.019974,0.39385,2.919,
            -0.098846,0.38177,2.919,
            -0.17367,0.35405,2.919,
            -0.24139,0.31185,2.919,
            -0.29922,0.25687,2.919,
            -0.3448,0.19138,2.919,
            -0.37627,0.11806,2.919,
            -0.39233,0.039896,2.919,
            -0.39233,-0.039896,2.919,
            -0.37627,-0.11806,2.919,
            -0.3448,-0.19138,2.919,
            -0.29922,-0.25687,2.919,
            -0.24139,-0.31185,2.919,
            -0.17367,-0.35405,2.919,
            -0.098846,-0.38177,2.919,
            -0.019974,-0.39385,2.919,
            0.059716,-0.38981,2.919,
            0.13696,-0.36981,2.919,
            0.2086,-0.33467,2.919,
            0.2717,-0.28583,2.919,
            0.32367,-0.22528,2.919,
            0.3624,-0.15552,2.919,
            0.38628,-0.079383,2.919,
            0.39436,-9.6589e-17,2.919,
            0.4853,0,2.8743,
            0.47537,0.097691,2.8743,
            0.44597,0.19138,2.8743,
            0.39832,0.27724,2.8743,
            0.33436,0.35174,2.8743,
            0.25671,0.41185,2.8743,
            0.16855,0.45509,2.8743,
            0.073488,0.47971,2.8743,
            -0.02458,0.48468,2.8743,
            -0.12164,0.46981,2.8743,
            -0.21372,0.43571,2.8743,
            -0.29706,0.38377,2.8743,
            -0.36823,0.31611,2.8743,
            -0.42432,0.23552,2.8743,
            -0.46305,0.14528,2.8743,
            -0.48281,0.049097,2.8743,
            -0.48281,-0.049097,2.8743,
            -0.46305,-0.14528,2.8743,
            -0.42432,-0.23552,2.8743,
            -0.36823,-0.31611,2.8743,
            -0.29706,-0.38377,2.8743,
            -0.21372,-0.43571,2.8743,
            -0.12164,-0.46981,2.8743,
            -0.02458,-0.48468,2.8743,
            0.073488,-0.47971,2.8743,
            0.16855,-0.45509,2.8743,
            0.25671,-0.41185,2.8743,
            0.33436,-0.35174,2.8743,
            0.39832,-0.27724,2.8743,
            0.44597,-0.19138,2.8743,
            0.47537,-0.097691,2.8743,
            0.4853,-1.1886e-16,2.8743,
            0.57127,0,2.8208,
            0.55957,0.115,2.8208,
            0.52497,0.22528,2.8208,
            0.46888,0.32635,2.8208,
            0.39358,0.41405,2.8208,
            0.30218,0.4848,2.8208,
            0.1984,0.53571,2.8208,
            0.086506,0.56468,2.8208,
            -0.028934,0.57053,2.8208,
            -0.14319,0.55303,2.8208,
            -0.25158,0.51289,2.8208,
            -0.34968,0.45175,2.8208,
            -0.43345,0.37211,2.8208,
            -0.49949,0.27724,2.8208,
            -0.54507,0.17102,2.8208,
            -0.56834,0.057794,2.8208,
            -0.56834,-0.057794,2.8208,
            -0.54507,-0.17102,2.8208,
            -0.49949,-0.27724,2.8208,
            -0.43345,-0.37211,2.8208,
            -0.34968,-0.45175,2.8208,
            -0.25158,-0.51289,2.8208,
            -0.14319,-0.55303,2.8208,
            -0.028934,-0.57053,2.8208,
            0.086506,-0.56468,2.8208,
            0.1984,-0.53571,2.8208,
            0.30218,-0.4848,2.8208,
            0.39358,-0.41405,2.8208,
            0.46888,-0.32635,2.8208,
            0.52497,-0.22528,2.8208,
            0.55957,-0.115,2.8208,
            0.57127,-1.3992e-16,2.8208,
            0.65137,0,2.7588,
            0.63804,0.13112,2.7588,
            0.59858,0.25687,2.7588,
            0.53462,0.37211,2.7588,
            0.44877,0.47211,2.7588,
            0.34455,0.55278,2.7588,
            0.22623,0.61083,2.7588,
            0.098636,0.64386,2.7588,
            -0.032991,0.65054,2.7588,
            -0.16327,0.63058,2.7588,
            -0.28686,0.58481,2.7588,
            -0.39871,0.51509,2.7588,
            -0.49423,0.42429,2.7588,
            -0.56953,0.31611,2.7588,
            -0.6215,0.195,2.7588,
            -0.64803,0.065898,2.7588,
            -0.64803,-0.065898,2.7588,
            -0.6215,-0.195,2.7588,
            -0.56953,-0.31611,2.7588,
            -0.49423,-0.42429,2.7588,
            -0.39871,-0.51509,2.7588,
            -0.28686,-0.58481,2.7588,
            -0.16327,-0.63058,2.7588,
            -0.032991,-0.65054,2.7588,
            0.098636,-0.64386,2.7588,
            0.22623,-0.61083,2.7588,
            0.34455,-0.55278,2.7588,
            0.44877,-0.47211,2.7588,
            0.53462,-0.37211,2.7588,
            0.59858,-0.25687,2.7588,
            0.63804,-0.13112,2.7588,
            0.65137,-1.5954e-16,2.7588,
            0.72479,0,2.689,
            0.70996,0.1459,2.689,
            0.66605,0.28583,2.689,
            0.59488,0.41405,2.689,
            0.49936,0.52532,2.689,
            0.38339,0.61509,2.689,
            0.25172,0.67968,2.689,
            0.10975,0.71643,2.689,
            -0.03671,0.72386,2.689,
            -0.18167,0.70166,2.689,
            -0.31919,0.65072,2.689,
            -0.44365,0.57315,2.689,
            -0.54994,0.47211,2.689,
            -0.63372,0.35174,2.689,
            -0.69155,0.21698,2.689,
            -0.72107,0.073326,2.689,
            -0.72107,-0.073326,2.689,
            -0.69155,-0.21698,2.689,
            -0.63372,-0.35174,2.689,
            -0.54994,-0.47211,2.689,
            -0.44365,-0.57315,2.689,
            -0.31919,-0.65072,2.689,
            -0.18167,-0.70166,2.689,
            -0.03671,-0.72386,2.689,
            0.10975,-0.71643,2.689,
            0.25172,-0.67968,2.689,
            0.38339,-0.61509,2.689,
            0.49936,-0.52532,2.689,
            0.59488,-0.41405,2.689,
            0.66605,-0.28583,2.689,
            0.70996,-0.1459,2.689,
            0.72479,-1.7752e-16,2.689,
            0.79078,0,2.6121,
            0.77459,0.15918,2.6121,
            0.72669,0.31185,2.6121,
            0.64904,0.45175,2.6121,
            0.54482,0.57315,2.6121,
            0.41829,0.67109,2.6121,
            0.27464,0.74155,2.6121,
            0.11975,0.78166,2.6121,
            -0.040052,0.78976,2.6121,
            -0.19821,0.76553,2.6121,
            -0.34825,0.70996,2.6121,
            -0.48404,0.62533,2.6121,
            -0.60001,0.51509,2.6121,
            -0.69141,0.38377,2.6121,
            -0.75451,0.23673,2.6121,
            -0.78672,0.080001,2.6121,
            -0.78672,-0.080001,2.6121,
            -0.75451,-0.23673,2.6121,
            -0.69141,-0.38377,2.6121,
            -0.60001,-0.51509,2.6121,
            -0.48404,-0.62533,2.6121,
            -0.34825,-0.70996,2.6121,
            -0.19821,-0.76553,2.6121,
            -0.040052,-0.78976,2.6121,
            0.11975,-0.78166,2.6121,
            0.27464,-0.74155,2.6121,
            0.41829,-0.67109,2.6121,
            0.54482,-0.57315,2.6121,
            0.64904,-0.45175,2.6121,
            0.72669,-0.31185,2.6121,
            0.77459,-0.15918,2.6121,
            0.79078,-1.9368e-16,2.6121,
            0.84864,0,2.529,
            0.83127,0.17083,2.529,
            0.77987,0.33467,2.529,
            0.69654,0.4848,2.529,
            0.58469,0.61509,2.529,
            0.4489,0.7202,2.529,
            0.29474,0.79582,2.529,
            0.12851,0.83886,2.529,
            -0.042983,0.84756,2.529,
            -0.21271,0.82155,2.529,
            -0.37374,0.76192,2.529,
            -0.51946,0.67109,2.529,
            -0.64392,0.55278,2.529,
            -0.74201,0.41185,2.529,
            -0.80972,0.25405,2.529,
            -0.84429,0.085856,2.529,
            -0.84429,-0.085856,2.529,
            -0.80972,-0.25405,2.529,
            -0.74201,-0.41185,2.529,
            -0.64392,-0.55278,2.529,
            -0.51946,-0.67109,2.529,
            -0.37374,-0.76192,2.529,
            -0.21271,-0.82155,2.529,
            -0.042983,-0.84756,2.529,
            0.12851,-0.83886,2.529,
            0.29474,-0.79582,2.529,
            0.4489,-0.7202,2.529,
            0.58469,-0.61509,2.529,
            0.69654,-0.4848,2.529,
            0.77987,-0.33467,2.529,
            0.83127,-0.17083,2.529,
            0.84864,-2.0786e-16,2.529,
            0.8978,0,2.4404,
            0.87943,0.18073,2.4404,
            0.82504,0.35405,2.4404,
            0.73689,0.51289,2.4404,
            0.61856,0.65072,2.4404,
            0.47491,0.76192,2.4404,
            0.31181,0.84192,2.4404,
            0.13595,0.88745,2.4404,
            -0.045473,0.89665,2.4404,
            -0.22504,0.86914,2.4404,
            -0.39539,0.80605,2.4404,
            -0.54955,0.70996,2.4404,
            -0.68122,0.58481,2.4404,
            -0.78499,0.43571,2.4404,
            -0.85663,0.26877,2.4404,
            -0.8932,0.090829,2.4404,
            -0.8932,-0.090829,2.4404,
            -0.85663,-0.26877,2.4404,
            -0.78499,-0.43571,2.4404,
            -0.68122,-0.58481,2.4404,
            -0.54955,-0.70996,2.4404,
            -0.39539,-0.80605,2.4404,
            -0.22504,-0.86914,2.4404,
            -0.045473,-0.89665,2.4404,
            0.13595,-0.88745,2.4404,
            0.31181,-0.84192,2.4404,
            0.47491,-0.76192,2.4404,
            0.61856,-0.65072,2.4404,
            0.73689,-0.51289,2.4404,
            0.82504,-0.35405,2.4404,
            0.87943,-0.18073,2.4404,
            0.8978,-2.199e-16,2.4404,
            0.93775,0,2.3473,
            0.91856,0.18877,2.3473,
            0.86175,0.36981,2.3473,
            0.76967,0.53571,2.3473,
            0.64608,0.67968,2.3473,
            0.49604,0.79582,2.3473,
            0.32569,0.87938,2.3473,
            0.142,0.92694,2.3473,
            -0.047496,0.93655,2.3473,
            -0.23505,0.90782,2.3473,
            -0.41298,0.84192,2.3473,
            -0.574,0.74155,2.3473,
            -0.71153,0.61083,2.3473,
            -0.81992,0.45509,2.3473,
            -0.89475,0.28073,2.3473,
            -0.93294,0.094871,2.3473,
            -0.93294,-0.094871,2.3473,
            -0.89475,-0.28073,2.3473,
            -0.81992,-0.45509,2.3473,
            -0.71153,-0.61083,2.3473,
            -0.574,-0.74155,2.3473,
            -0.41298,-0.84192,2.3473,
            -0.23505,-0.90782,2.3473,
            -0.047496,-0.93655,2.3473,
            0.142,-0.92694,2.3473,
            0.32569,-0.87938,2.3473,
            0.49604,-0.79582,2.3473,
            0.64608,-0.67968,2.3473,
            0.76967,-0.53571,2.3473,
            0.86175,-0.36981,2.3473,
            0.91856,-0.18877,2.3473,
            0.93775,-2.2968e-16,2.3473,
            0.96808,0,2.2507,
            0.94826,0.19487,2.2507,
            0.88962,0.38177,2.2507,
            0.79456,0.55303,2.2507,
            0.66697,0.70166,2.2507,
            0.51208,0.82155,2.2507,
            0.33622,0.90782,2.2507,
            0.14659,0.95691,2.2507,
            -0.049032,0.96683,2.2507,
            -0.24265,0.93717,2.2507,
            -0.42634,0.86914,2.2507,
            -0.59257,0.76553,2.2507,
            -0.73454,0.63058,2.2507,
            -0.84643,0.46981,2.2507,
            -0.92368,0.28981,2.2507,
            -0.96311,0.097939,2.2507,
            -0.96311,-0.097939,2.2507,
            -0.92368,-0.28981,2.2507,
            -0.84643,-0.46981,2.2507,
            -0.73454,-0.63058,2.2507,
            -0.59257,-0.76553,2.2507,
            -0.42634,-0.86914,2.2507,
            -0.24265,-0.93717,2.2507,
            -0.049032,-0.96683,2.2507,
            0.14659,-0.95691,2.2507,
            0.33622,-0.90782,2.2507,
            0.51208,-0.82155,2.2507,
            0.66697,-0.70166,2.2507,
            0.79456,-0.55303,2.2507,
            0.88962,-0.38177,2.2507,
            0.94826,-0.19487,2.2507,
            0.96808,-2.3711e-16,2.2507,
            0.98847,0,2.1514,
            0.96823,0.19898,2.1514,
            0.90836,0.38981,2.1514,
            0.8113,0.56468,2.1514,
            0.68102,0.71643,2.1514,
            0.52286,0.83886,2.1514,
            0.3433,0.92694,2.1514,
            0.14968,0.97707,2.1514,
            -0.050065,0.9872,2.1514,
            -0.24776,0.95691,2.1514,
            -0.43532,0.88745,2.1514,
            -0.60505,0.78166,2.1514,
            -0.75001,0.64386,2.1514,
            -0.86426,0.47971,2.1514,
            -0.94314,0.29591,2.1514,
            -0.9834,0.1,2.1514,
            -0.9834,-0.1,2.1514,
            -0.94314,-0.29591,2.1514,
            -0.86426,-0.47971,2.1514,
            -0.75001,-0.64386,2.1514,
            -0.60505,-0.78166,2.1514,
            -0.43532,-0.88745,2.1514,
            -0.24776,-0.95691,2.1514,
            -0.050065,-0.9872,2.1514,
            0.14968,-0.97707,2.1514,
            0.3433,-0.92694,2.1514,
            0.52286,-0.83886,2.1514,
            0.68102,-0.71643,2.1514,
            0.8113,-0.56468,2.1514,
            0.90836,-0.38981,2.1514,
            0.96823,-0.19898,2.1514,
            0.98847,-2.421e-16,2.1514,
            0.99872,0,2.0506,
            0.97827,0.20104,2.0506,
            0.91778,0.39385,2.0506,
            0.81971,0.57053,2.0506,
            0.68808,0.72386,2.0506,
            0.52829,0.84756,2.0506,
            0.34686,0.93655,2.0506,
            0.15123,0.9872,2.0506,
            -0.050584,0.99743,2.0506,
            -0.25033,0.96683,2.0506,
            -0.43983,0.89665,2.0506,
            -0.61132,0.78976,2.0506,
            -0.75778,0.65054,2.0506,
            -0.87322,0.48468,2.0506,
            -0.95291,0.29898,2.0506,
            -0.99359,0.10104,2.0506,
            -0.99359,-0.10104,2.0506,
            -0.95291,-0.29898,2.0506,
            -0.87322,-0.48468,2.0506,
            -0.75778,-0.65054,2.0506,
            -0.61132,-0.78976,2.0506,
            -0.43983,-0.89665,2.0506,
            -0.25033,-0.96683,2.0506,
            -0.050584,-0.99743,2.0506,
            0.15123,-0.9872,2.0506,
            0.34686,-0.93655,2.0506,
            0.52829,-0.84756,2.0506,
            0.68808,-0.72386,2.0506,
            0.81971,-0.57053,2.0506,
            0.91778,-0.39385,2.0506,
            0.97827,-0.20104,2.0506,
            0.99872,-2.4461e-16,2.0506,
            0.99872,0,1.9494,
            0.97827,0.20104,1.9494,
            0.91778,0.39385,1.9494,
            0.81971,0.57053,1.9494,
            0.68808,0.72386,1.9494,
            0.52829,0.84756,1.9494,
            0.34686,0.93655,1.9494,
            0.15123,0.9872,1.9494,
            -0.050584,0.99743,1.9494,
            -0.25033,0.96683,1.9494,
            -0.43983,0.89665,1.9494,
            -0.61132,0.78976,1.9494,
            -0.75778,0.65054,1.9494,
            -0.87322,0.48468,1.9494,
            -0.95291,0.29898,1.9494,
            -0.99359,0.10104,1.9494,
            -0.99359,-0.10104,1.9494,
            -0.95291,-0.29898,1.9494,
            -0.87322,-0.48468,1.9494,
            -0.75778,-0.65054,1.9494,
            -0.61132,-0.78976,1.9494,
            -0.43983,-0.89665,1.9494,
            -0.25033,-0.96683,1.9494,
            -0.050584,-0.99743,1.9494,
            0.15123,-0.9872,1.9494,
            0.34686,-0.93655,1.9494,
            0.52829,-0.84756,1.9494,
            0.68808,-0.72386,1.9494,
            0.81971,-0.57053,1.9494,
            0.91778,-0.39385,1.9494,
            0.97827,-0.20104,1.9494,
            0.99872,-2.4461e-16,1.9494,
            0.98847,0,1.8486,
            0.96823,0.19898,1.8486,
            0.90836,0.38981,1.8486,
            0.8113,0.56468,1.8486,
            0.68102,0.71643,1.8486,
            0.52286,0.83886,1.8486,
            0.3433,0.92694,1.8486,
            0.14968,0.97707,1.8486,
            -0.050065,0.9872,1.8486,
            -0.24776,0.95691,1.8486,
            -0.43532,0.88745,1.8486,
            -0.60505,0.78166,1.8486,
            -0.75001,0.64386,1.8486,
            -0.86426,0.47971,1.8486,
            -0.94314,0.29591,1.8486,
            -0.9834,0.1,1.8486,
            -0.9834,-0.1,1.8486,
            -0.94314,-0.29591,1.8486,
            -0.86426,-0.47971,1.8486,
            -0.75001,-0.64386,1.8486,
            -0.60505,-0.78166,1.8486,
            -0.43532,-0.88745,1.8486,
            -0.24776,-0.95691,1.8486,
            -0.050065,-0.9872,1.8486,
            0.14968,-0.97707,1.8486,
            0.3433,-0.92694,1.8486,
            0.52286,-0.83886,1.8486,
            0.68102,-0.71643,1.8486,
            0.8113,-0.56468,1.8486,
            0.90836,-0.38981,1.8486,
            0.96823,-0.19898,1.8486,
            0.98847,-2.421e-16,1.8486,
            0.96808,0,1.7493,
            0.94826,0.19487,1.7493,
            0.88962,0.38177,1.7493,
            0.79456,0.55303,1.7493,
            0.66697,0.70166,1.7493,
            0.51208,0.82155,1.7493,
            0.33622,0.90782,1.7493,
            0.14659,0.95691,1.7493,
            -0.049032,0.96683,1.7493,
            -0.24265,0.93717,1.7493,
            -0.42634,0.86914,1.7493,
            -0.59257,0.76553,1.7493,
            -0.73454,0.63058,1.7493,
            -0.84643,0.46981,1.7493,
            -0.92368,0.28981,1.7493,
            -0.96311,0.097939,1.7493,
            -0.96311,-0.097939,1.7493,
            -0.92368,-0.28981,1.7493,
            -0.84643,-0.46981,1.7493,
            -0.73454,-0.63058,1.7493,
            -0.59257,-0.76553,1.7493,
            -0.42634,-0.86914,1.7493,
            -0.24265,-0.93717,1.7493,
            -0.049032,-0.96683,1.7493,
            0.14659,-0.95691,1.7493,
            0.33622,-0.90782,1.7493,
            0.51208,-0.82155,1.7493,
            0.66697,-0.70166,1.7493,
            0.79456,-0.55303,1.7493,
            0.88962,-0.38177,1.7493,
            0.94826,-0.19487,1.7493,
            0.96808,-2.3711e-16,1.7493,
            0.93775,0,1.6527,
            0.91856,0.18877,1.6527,
            0.86175,0.36981,1.6527,
            0.76967,0.53571,1.6527,
            0.64608,0.67968,1.6527,
            0.49604,0.79582,1.6527,
            0.32569,0.87938,1.6527,
            0.142,0.92694,1.6527,
            -0.047496,0.93655,1.6527,
            -0.23505,0.90782,1.6527,
            -0.41298,0.84192,1.6527,
            -0.574,0.74155,1.6527,
            -0.71153,0.61083,1.6527,
            -0.81992,0.45509,1.6527,
            -0.89475,0.28073,1.6527,
            -0.93294,0.094871,1.6527,
            -0.93294,-0.094871,1.6527,
            -0.89475,-0.28073,1.6527,
            -0.81992,-0.45509,1.6527,
            -0.71153,-0.61083,1.6527,
            -0.574,-0.74155,1.6527,
            -0.41298,-0.84192,1.6527,
            -0.23505,-0.90782,1.6527,
            -0.047496,-0.93655,1.6527,
            0.142,-0.92694,1.6527,
            0.32569,-0.87938,1.6527,
            0.49604,-0.79582,1.6527,
            0.64608,-0.67968,1.6527,
            0.76967,-0.53571,1.6527,
            0.86175,-0.36981,1.6527,
            0.91856,-0.18877,1.6527,
            0.93775,-2.2968e-16,1.6527,
            0.8978,0,1.5596,
            0.87943,0.18073,1.5596,
            0.82504,0.35405,1.5596,
            0.73689,0.51289,1.5596,
            0.61856,0.65072,1.5596,
            0.47491,0.76192,1.5596,
            0.31181,0.84192,1.5596,
            0.13595,0.88745,1.5596,
            -0.045473,0.89665,1.5596,
            -0.22504,0.86914,1.5596,
            -0.39539,0.80605,1.5596,
            -0.54955,0.70996,1.5596,
            -0.68122,0.58481,1.5596,
            -0.78499,0.43571,1.5596,
            -0.85663,0.26877,1.5596,
            -0.8932,0.090829,1.5596,
            -0.8932,-0.090829,1.5596,
            -0.85663,-0.26877,1.5596,
            -0.78499,-0.43571,1.5596,
            -0.68122,-0.58481,1.5596,
            -0.54955,-0.70996,1.5596,
            -0.39539,-0.80605,1.5596,
            -0.22504,-0.86914,1.5596,
            -0.045473,-0.89665,1.5596,
            0.13595,-0.88745,1.5596,
            0.31181,-0.84192,1.5596,
            0.47491,-0.76192,1.5596,
            0.61856,-0.65072,1.5596,
            0.73689,-0.51289,1.5596,
            0.82504,-0.35405,1.5596,
            0.87943,-0.18073,1.5596,
            0.8978,-2.199e-16,1.5596,
            0.84864,0,1.471,
            0.83127,0.17083,1.471,
            0.77987,0.33467,1.471,
            0.69654,0.4848,1.471,
            0.58469,0.61509,1.471,
            0.4489,0.7202,1.471,
            0.29474,0.79582,1.471,
            0.12851,0.83886,1.471,
            -0.042983,0.84756,1.471,
            -0.21271,0.82155,1.471,
            -0.37374,0.76192,1.471,
            -0.51946,0.67109,1.471,
            -0.64392,0.55278,1.471,
            -0.74201,0.41185,1.471,
            -0.80972,0.25405,1.471,
            -0.84429,0.085856,1.471,
            -0.84429,-0.085856,1.471,
            -0.80972,-0.25405,1.471,
            -0.74201,-0.41185,1.471,
            -0.64392,-0.55278,1.471,
            -0.51946,-0.67109,1.471,
            -0.37374,-0.76192,1.471,
            -0.21271,-0.82155,1.471,
            -0.042983,-0.84756,1.471,
            0.12851,-0.83886,1.471,
            0.29474,-0.79582,1.471,
            0.4489,-0.7202,1.471,
            0.58469,-0.61509,1.471,
            0.69654,-0.4848,1.471,
            0.77987,-0.33467,1.471,
            0.83127,-0.17083,1.471,
            0.84864,-2.0786e-16,1.471,
            0.79078,0,1.3879,
            0.77459,0.15918,1.3879,
            0.72669,0.31185,1.3879,
            0.64904,0.45175,1.3879,
            0.54482,0.57315,1.3879,
            0.41829,0.67109,1.3879,
            0.27464,0.74155,1.3879,
            0.11975,0.78166,1.3879,
            -0.040052,0.78976,1.3879,
            -0.19821,0.76553,1.3879,
            -0.34825,0.70996,1.3879,
            -0.48404,0.62533,1.3879,
            -0.60001,0.51509,1.3879,
            -0.69141,0.38377,1.3879,
            -0.75451,0.23673,1.3879,
            -0.78672,0.080001,1.3879,
            -0.78672,-0.080001,1.3879,
            -0.75451,-0.23673,1.3879,
            -0.69141,-0.38377,1.3879,
            -0.60001,-0.51509,1.3879,
            -0.48404,-0.62533,1.3879,
            -0.34825,-0.70996,1.3879,
            -0.19821,-0.76553,1.3879,
            -0.040052,-0.78976,1.3879,
            0.11975,-0.78166,1.3879,
            0.27464,-0.74155,1.3879,
            0.41829,-0.67109,1.3879,
            0.54482,-0.57315,1.3879,
            0.64904,-0.45175,1.3879,
            0.72669,-0.31185,1.3879,
            0.77459,-0.15918,1.3879,
            0.79078,-1.9368e-16,1.3879,
            0.72479,0,1.311,
            0.70996,0.1459,1.311,
            0.66605,0.28583,1.311,
            0.59488,0.41405,1.311,
            0.49936,0.52532,1.311,
            0.38339,0.61509,1.311,
            0.25172,0.67968,1.311,
            0.10975,0.71643,1.311,
            -0.03671,0.72386,1.311,
            -0.18167,0.70166,1.311,
            -0.31919,0.65072,1.311,
            -0.44365,0.57315,1.311,
            -0.54994,0.47211,1.311,
            -0.63372,0.35174,1.311,
            -0.69155,0.21698,1.311,
            -0.72107,0.073326,1.311,
            -0.72107,-0.073326,1.311,
            -0.69155,-0.21698,1.311,
            -0.63372,-0.35174,1.311,
            -0.54994,-0.47211,1.311,
            -0.44365,-0.57315,1.311,
            -0.31919,-0.65072,1.311,
            -0.18167,-0.70166,1.311,
            -0.03671,-0.72386,1.311,
            0.10975,-0.71643,1.311,
            0.25172,-0.67968,1.311,
            0.38339,-0.61509,1.311,
            0.49936,-0.52532,1.311,
            0.59488,-0.41405,1.311,
            0.66605,-0.28583,1.311,
            0.70996,-0.1459,1.311,
            0.72479,-1.7752e-16,1.311,
            0.65137,0,1.2412,
            0.63804,0.13112,1.2412,
            0.59858,0.25687,1.2412,
            0.53462,0.37211,1.2412,
            0.44877,0.47211,1.2412,
            0.34455,0.55278,1.2412,
            0.22623,0.61083,1.2412,
            0.098636,0.64386,1.2412,
            -0.032991,0.65054,1.2412,
            -0.16327,0.63058,1.2412,
            -0.28686,0.58481,1.2412,
            -0.39871,0.51509,1.2412,
            -0.49423,0.42429,1.2412,
            -0.56953,0.31611,1.2412,
            -0.6215,0.195,1.2412,
            -0.64803,0.065898,1.2412,
            -0.64803,-0.065898,1.2412,
            -0.6215,-0.195,1.2412,
            -0.56953,-0.31611,1.2412,
            -0.49423,-0.42429,1.2412,
            -0.39871,-0.51509,1.2412,
            -0.28686,-0.58481,1.2412,
            -0.16327,-0.63058,1.2412,
            -0.032991,-0.65054,1.2412,
            0.098636,-0.64386,1.2412,
            0.22623,-0.61083,1.2412,
            0.34455,-0.55278,1.2412,
            0.44877,-0.47211,1.2412,
            0.53462,-0.37211,1.2412,
            0.59858,-0.25687,1.2412,
            0.63804,-0.13112,1.2412,
            0.65137,-1.5954e-16,1.2412,
            0.57127,0,1.1792,
            0.55957,0.115,1.1792,
            0.52497,0.22528,1.1792,
            0.46888,0.32635,1.1792,
            0.39358,0.41405,1.1792,
            0.30218,0.4848,1.1792,
            0.1984,0.53571,1.1792,
            0.086506,0.56468,1.1792,
            -0.028934,0.57053,1.1792,