&HEAD CHID='50_once_cold_crah',TITLE='datacenter 50 W/ft^2 once through cold enclosure crah'/

&MESH XB= 0.0000 ,8.2296 ,0.0000 ,8.5344 ,0.0000 ,4.8768 , IJK = 81, 84, 48/
&MESH XB= 8.2296 ,16.4592 ,0.0000 ,8.5344 ,0.0000 ,4.8768 , IJK = 81, 84, 48/
&MESH XB= 0.0000 ,8.2296 ,8.5344 ,17.0688 ,0.0000 ,4.8768 , IJK = 81, 84, 48/
&MESH XB= 8.2296 ,16.4592 ,8.5344 ,17.0688 ,0.0000 ,4.8768 , IJK = 81, 84, 48/

&RADI RADIATION=.FALSE./
&CLIP MINIMUM_TEMPERATURE=0./
&MISC CONSTANT_SPECIFIC_HEAT_RATIO=.TRUE.,STRATIFICATION=.FALSE./
&TIME T_END=420./
&DUMP NFRAMES=420/

&ZONE LEAK_AREA(0)=0.3/
&PRES VELOCITY_TOLERANCE=0.005/
&SPEC ID='SOOT',LUMPED_COMPONENT_ONLY=.TRUE./
&SPEC ID='SOOT1',SPEC_ID='SOOT'/
&SPEC ID='SOOT2',SPEC_ID='SOOT'/

&SURF ID='TILE',RGB=230,230,230,HEAT_TRANSFER_COEFFICIENT=0./
&SURF ID='RACK',RGB=100,100,230,HEAT_TRANSFER_COEFFICIENT=0./
&SURF ID='CRAH',RGB=230,100,100,HEAT_TRANSFER_COEFFICIENT=0./
&SURF ID='BUILDING',RGB=60,60,60,DEFAULT=.TRUE.,HEAT_TRANSFER_COEFFICIENT=0.,LEAK_PATH=1,0/
&SURF ID='ENCLOSURE',RGB=100,230,100,TRANSPARENCY=0.60,HEAT_TRANSFER_COEFFICIENT=0./
&SURF ID='CABLE',RGB=100,100,100,HEAT_TRANSFER_COEFFICIENT=0./

&OBST XB= 2.7432 ,3.0480 ,1.8288 ,7.9248 ,0.3048 ,0.4064 , SURF_ID='CABLE'/RACK1
&OBST XB= 4.8768 ,5.1816 ,1.8288 ,7.9248 ,0.3048 ,0.4064 , SURF_ID='CABLE'/RACK2
&OBST XB= 7.0104 ,7.3152 ,1.8288 ,7.9248 ,0.3048 ,0.4064 , SURF_ID='CABLE'/RACK3
&OBST XB= 9.1440 ,9.4488 ,1.8288 ,7.9248 ,0.3048 ,0.4064 , SURF_ID='CABLE'/RACK4
&OBST XB= 11.2776 ,11.5824 ,1.8288 ,7.9248 ,0.3048 ,0.4064 , SURF_ID='CABLE'/RACK5
&OBST XB= 13.4112 ,13.7160 ,1.8288 ,7.9248 ,0.3048 ,0.4064 , SURF_ID='CABLE'/RACK6
&OBST XB= 2.7432 ,3.0480 ,9.1440 ,15.2400 ,0.3048 ,0.4064 , SURF_ID='CABLE'/RACK7
&OBST XB= 4.8768 ,5.1816 ,9.1440 ,15.2400 ,0.3048 ,0.4064 , SURF_ID='CABLE'/RACK8
&OBST XB= 7.0104 ,7.3152 ,9.1440 ,15.2400 ,0.3048 ,0.4064 , SURF_ID='CABLE'/RACK9
&OBST XB= 9.1440 ,9.4488 ,9.1440 ,15.2400 ,0.3048 ,0.4064 , SURF_ID='CABLE'/RACK10
&OBST XB= 11.2776 ,11.5824 ,9.1440 ,15.2400 ,0.3048 ,0.4064 , SURF_ID='CABLE'/RACK11
&OBST XB= 13.4112 ,13.7160 ,9.1440 ,15.2400 ,0.3048 ,0.4064 , SURF_ID='CABLE'/RACK12

&PART  ID= 'FSCREENZ', DRAG_LAW= 'SCREEN', FREE_AREA_FRACTION=0.54, ORIENTATION=0,0,1,SURF_ID= 'FSCREEN', STATIC=.TRUE./
&PART  ID= 'CSCREENZ', DRAG_LAW= 'SCREEN', FREE_AREA_FRACTION=0.54, ORIENTATION=0,0,1,SURF_ID= 'CSCREEN', STATIC=.TRUE./

&SURF ID= 'FSCREEN', GEOMETRY= 'CYLINDRICAL', THICKNESS=3.26E-4,HEAT_TRANSFER_COEFFICIENT=0./
&SURF ID= 'CSCREEN', GEOMETRY= 'CYLINDRICAL', THICKNESS=2.9e-4,HEAT_TRANSFER_COEFFICIENT=0./

&OBST XB= 0.0000 ,0.9144 ,2.7432 ,5.7912 ,0.9144 ,3.9624 , SURF_ID='CRAH'/CRAH1
&OBST XB= 0.0000 ,0.9144 ,11.2776 ,14.3256 ,0.9144 ,3.9624 , SURF_ID='CRAH'/CRAH2
&OBST XB= 15.5448 ,16.4592 ,2.7432 ,5.7912 ,0.9144 ,3.9624 , SURF_ID='CRAH'/CRAH3
&OBST XB= 15.5448 ,16.4592 ,11.2776 ,14.3256 ,0.9144 ,3.9624 , SURF_ID='CRAH'/CRAH4
&OBST XB= 2.5908 ,5.6388 ,0.0000 ,0.9144 ,0.9144 ,3.9624 , SURF_ID='CRAH'/CRAH5
&OBST XB= 10.8204 ,13.8684 ,0.0000 ,0.9144 ,0.9144 ,3.9624 , SURF_ID='CRAH'/CRAH6
&OBST XB= 2.5908 ,5.6388 ,16.1544 ,17.0688 ,0.9144 ,3.9624 , SURF_ID='CRAH'/CRAH7
&OBST XB= 10.8204 ,13.8684 ,16.1544 ,17.0688 ,0.9144 ,3.9624 , SURF_ID='CRAH'/CRAH8


&OBST XB= 2.4384 ,3.3528 ,1.8288 ,7.9248 ,0.9144 ,2.7432 , SURF_ID='RACK'/RACK1
&OBST XB= 4.5720 ,5.4864 ,1.8288 ,7.9248 ,0.9144 ,2.7432 , SURF_ID='RACK'/RACK2
&OBST XB= 6.7056 ,7.6200 ,1.8288 ,7.9248 ,0.9144 ,2.7432 , SURF_ID='RACK'/RACK3
&OBST XB= 8.8392 ,9.7536 ,1.8288 ,7.9248 ,0.9144 ,2.7432 , SURF_ID='RACK'/RACK4
&OBST XB= 10.9728 ,11.8872 ,1.8288 ,7.9248 ,0.9144 ,2.7432 , SURF_ID='RACK'/RACK5
&OBST XB= 13.1064 ,14.0208 ,1.8288 ,7.9248 ,0.9144 ,2.7432 , SURF_ID='RACK'/RACK6
&OBST XB= 2.4384 ,3.3528 ,9.1440 ,15.2400 ,0.9144 ,2.7432 , SURF_ID='RACK'/RACK7
&OBST XB= 4.5720 ,5.4864 ,9.1440 ,15.2400 ,0.9144 ,2.7432 , SURF_ID='RACK'/RACK8
&OBST XB= 6.7056 ,7.6200 ,9.1440 ,15.2400 ,0.9144 ,2.7432 , SURF_ID='RACK'/RACK9
&OBST XB= 8.8392 ,9.7536 ,9.1440 ,15.2400 ,0.9144 ,2.7432 , SURF_ID='RACK'/RACK10
&OBST XB= 10.9728 ,11.8872 ,9.1440 ,15.2400 ,0.9144 ,2.7432 , SURF_ID='RACK'/RACK11
&OBST XB= 13.1064 ,14.0208 ,9.1440 ,15.2400 ,0.9144 ,2.7432 , SURF_ID='RACK'/RACK12


&OBST XB= 0.0000 ,16.4592 ,0.0000 ,17.0688 ,0.8128 ,0.9144 , SURF_ID='TILE'/FLOOR
&HOLE XB= 3.3528 ,4.5720 ,1.8288 ,7.9248 ,0.7112 ,1.0160/COLD12
&HOLE XB= 7.6200 ,8.8392 ,1.8288 ,7.9248 ,0.7112 ,1.0160/COLD34
&HOLE XB= 11.8872 ,13.1064 ,1.8288 ,7.9248 ,0.7112 ,1.0160/COLD56
&HOLE XB= 3.3528 ,4.5720 ,9.1440 ,15.2400 ,0.7112 ,1.0160/COLD78
&HOLE XB= 7.6200 ,8.8392 ,9.1440 ,15.2400 ,0.7112 ,1.0160/COLD910
&HOLE XB= 11.8872 ,13.1064 ,9.1440 ,15.2400 ,0.7112 ,1.0160/COLD1112
&INIT XB= 3.3528 ,4.5720 ,1.8288 ,7.9248 ,0.8382 ,0.8890, PART_ID='FSCREENZ', CELL_CENTERED=.TRUE.,N_PARTICLES_PER_CELL=1 /COLD12
&INIT XB= 7.6200 ,8.8392 ,1.8288 ,7.9248 ,0.8382 ,0.8890, PART_ID='FSCREENZ', CELL_CENTERED=.TRUE.,N_PARTICLES_PER_CELL=1 /COLD34
&INIT XB= 11.8872 ,13.1064 ,1.8288 ,7.9248 ,0.8382 ,0.8890, PART_ID='FSCREENZ', CELL_CENTERED=.TRUE.,N_PARTICLES_PER_CELL=1 /COLD56
&INIT XB= 3.3528 ,4.5720 ,9.1440 ,15.2400 ,0.8382 ,0.8890, PART_ID='FSCREENZ', CELL_CENTERED=.TRUE.,N_PARTICLES_PER_CELL=1 /COLD78
&INIT XB= 7.6200 ,8.8392 ,9.1440 ,15.2400 ,0.8382 ,0.8890, PART_ID='FSCREENZ', CELL_CENTERED=.TRUE.,N_PARTICLES_PER_CELL=1 /COLD910
&INIT XB= 11.8872 ,13.1064 ,9.1440 ,15.2400 ,0.8382 ,0.8890, PART_ID='FSCREENZ', CELL_CENTERED=.TRUE.,N_PARTICLES_PER_CELL=1 /COLD1112
&OBST XB= 3.2512 ,4.6736 ,1.7272 ,8.0264 ,2.7432 ,2.8448 , SURF_ID='ENCLOSURE'/COLD12
&OBST XB= 3.2512 ,4.6736 ,1.7272 ,1.8288 ,0.9144 ,2.8448 , SURF_ID='ENCLOSURE'/COLD12
&OBST XB= 3.2512 ,4.6736 ,7.9248 ,8.0264 ,0.9144 ,2.8448 , SURF_ID='ENCLOSURE'/COLD12
&OBST XB= 7.5184 ,8.9408 ,1.7272 ,8.0264 ,2.7432 ,2.8448 , SURF_ID='ENCLOSURE'/COLD34
&OBST XB= 7.5184 ,8.9408 ,1.7272 ,1.8288 ,0.9144 ,2.8448 , SURF_ID='ENCLOSURE'/COLD34
&OBST XB= 7.5184 ,8.9408 ,7.9248 ,8.0264 ,0.9144 ,2.8448 , SURF_ID='ENCLOSURE'/COLD34
&OBST XB= 11.7856 ,13.2080 ,1.7272 ,8.0264 ,2.7432 ,2.8448 , SURF_ID='ENCLOSURE'/COLD56
&OBST XB= 11.7856 ,13.2080 ,1.7272 ,1.8288 ,0.9144 ,2.8448 , SURF_ID='ENCLOSURE'/COLD56
&OBST XB= 11.7856 ,13.2080 ,7.9248 ,8.0264 ,0.9144 ,2.8448 , SURF_ID='ENCLOSURE'/COLD56
&OBST XB= 3.2512 ,4.6736 ,9.0424 ,15.3416 ,2.7432 ,2.8448 , SURF_ID='ENCLOSURE'/COLD78
&OBST XB= 3.2512 ,4.6736 ,9.0424 ,9.1440 ,0.9144 ,2.8448 , SURF_ID='ENCLOSURE'/COLD78
&OBST XB= 3.2512 ,4.6736 ,15.2400 ,15.3416 ,0.9144 ,2.8448 , SURF_ID='ENCLOSURE'/COLD78
&OBST XB= 7.5184 ,8.9408 ,9.0424 ,15.3416 ,2.7432 ,2.8448 , SURF_ID='ENCLOSURE'/COLD910
&OBST XB= 7.5184 ,8.9408 ,9.0424 ,9.1440 ,0.9144 ,2.8448 , SURF_ID='ENCLOSURE'/COLD910
&OBST XB= 7.5184 ,8.9408 ,15.2400 ,15.3416 ,0.9144 ,2.8448 , SURF_ID='ENCLOSURE'/COLD910
&OBST XB= 11.7856 ,13.2080 ,9.0424 ,15.3416 ,2.7432 ,2.8448 , SURF_ID='ENCLOSURE'/COLD1112
&OBST XB= 11.7856 ,13.2080 ,9.0424 ,9.1440 ,0.9144 ,2.8448 , SURF_ID='ENCLOSURE'/COLD1112
&OBST XB= 11.7856 ,13.2080 ,15.2400 ,15.3416 ,0.9144 ,2.8448 , SURF_ID='ENCLOSURE'/COLD1112

&OBST XB= 0.0000 ,16.4592 ,0.0000 ,17.0688 ,3.9624 ,4.0640 , SURF_ID='TILE'/CEILING
&HOLE XB= 1.8288 ,2.4384 ,1.8288 ,7.9248 ,3.8608 ,4.1656/HOT1
&HOLE XB= 5.4864 ,6.7056 ,1.8288 ,7.9248 ,3.8608 ,4.1656/HOT23
&HOLE XB= 9.7536 ,10.9728 ,1.8288 ,7.9248 ,3.8608 ,4.1656/HOT45
&HOLE XB= 14.0208 ,14.6304 ,1.8288 ,7.9248 ,3.8608 ,4.1656/HOT6
&HOLE XB= 1.8288 ,2.4384 ,9.1440 ,15.2400 ,3.8608 ,4.1656/HOT7
&HOLE XB= 5.4864 ,6.7056 ,9.1440 ,15.2400 ,3.8608 ,4.1656/HOT89
&HOLE XB= 9.7536 ,10.9728 ,9.1440 ,15.2400 ,3.8608 ,4.1656/HOT1011
&HOLE XB= 14.0208 ,14.6304 ,9.1440 ,15.2400 ,3.8608 ,4.1656/HOT12
&INIT XB= 1.8288 ,2.4384 ,1.8288 ,7.9248 ,3.9878 ,4.0386, PART_ID='CSCREENZ', CELL_CENTERED=.TRUE.,N_PARTICLES_PER_CELL=1/HOT1
&INIT XB= 5.4864 ,6.7056 ,1.8288 ,7.9248 ,3.9878 ,4.0386, PART_ID='CSCREENZ', CELL_CENTERED=.TRUE.,N_PARTICLES_PER_CELL=1/HOT23
&INIT XB= 9.7536 ,10.9728 ,1.8288 ,7.9248 ,3.9878 ,4.0386, PART_ID='CSCREENZ', CELL_CENTERED=.TRUE.,N_PARTICLES_PER_CELL=1/HOT45
&INIT XB= 14.0208 ,14.6304 ,1.8288 ,7.9248 ,3.9878 ,4.0386, PART_ID='CSCREENZ', CELL_CENTERED=.TRUE.,N_PARTICLES_PER_CELL=1/HOT6
&INIT XB= 1.8288 ,2.4384 ,9.1440 ,15.2400 ,3.9878 ,4.0386, PART_ID='CSCREENZ', CELL_CENTERED=.TRUE.,N_PARTICLES_PER_CELL=1/HOT7
&INIT XB= 5.4864 ,6.7056 ,9.1440 ,15.2400 ,3.9878 ,4.0386, PART_ID='CSCREENZ', CELL_CENTERED=.TRUE.,N_PARTICLES_PER_CELL=1/HOT89
&INIT XB= 9.7536 ,10.9728 ,9.1440 ,15.2400 ,3.9878 ,4.0386, PART_ID='CSCREENZ', CELL_CENTERED=.TRUE.,N_PARTICLES_PER_CELL=1/HOT1011
&INIT XB= 14.0208 ,14.6304 ,9.1440 ,15.2400 ,3.9878 ,4.0386, PART_ID='CSCREENZ', CELL_CENTERED=.TRUE.,N_PARTICLES_PER_CELL=1/HOT12

&VENT XB= 0.0000 ,0.9144 ,2.7432 ,5.7912 ,4.0640 ,4.0640 , SURF_ID='HVAC', ID='CRAH1T'/CRAH1
&VENT XB= 0.0000 ,0.9144 ,11.2776 ,14.3256 ,4.0640 ,4.0640 , SURF_ID='HVAC', ID='CRAH2T'/CRAH2
&VENT XB= 15.5448 ,16.4592 ,2.7432 ,5.7912 ,4.0640 ,4.0640 , SURF_ID='HVAC', ID='CRAH3T'/CRAH3
&VENT XB= 15.5448 ,16.4592 ,11.2776 ,14.3256 ,4.0640 ,4.0640 , SURF_ID='HVAC', ID='CRAH4T'/CRAH4
&VENT XB= 10.8204 ,13.8684 ,0.0000 ,0.9144 ,4.0640 ,4.0640 , SURF_ID='HVAC', ID='CRAH6T'/CRAH6
&VENT XB= 2.5908 ,5.6388 ,16.1544 ,17.0688 ,4.0640 ,4.0640 , SURF_ID='HVAC', ID='CRAH7T'/CRAH7

&VENT XB= 0.0000 ,0.9144 ,2.7432 ,5.7912 ,0.8128 ,0.8128 , SURF_ID='HVAC', ID='CRAH1B'/CRAH1
&VENT XB= 0.0000 ,0.9144 ,11.2776 ,14.3256 ,0.8128 ,0.8128 , SURF_ID='HVAC', ID='CRAH2B'/CRAH2
&VENT XB= 15.5448 ,16.4592 ,2.7432 ,5.7912 ,0.8128 ,0.8128 , SURF_ID='HVAC', ID='CRAH3B'/CRAH3
&VENT XB= 15.5448 ,16.4592 ,11.2776 ,14.3256 ,0.8128 ,0.8128 , SURF_ID='HVAC', ID='CRAH4B'/CRAH4
&VENT XB= 10.8204 ,13.8684 ,0.0000 ,0.9144 ,0.8128 ,0.8128 , SURF_ID='HVAC', ID='CRAH6B'/CRAH6
&VENT XB= 2.5908 ,5.6388 ,16.1544 ,17.0688 ,0.8128 ,0.8128 , SURF_ID='HVAC', ID='CRAH7B'/CRAH7

&SURF ID='CRAH1S',HEAT_TRANSFER_COEFFICIENT=0.,SPEC_ID(1)='SOOT1',MASS_FLUX(1)=1.,RAMP_MF='SMOKE'/
&HOLE XB= 0.1016 ,0.8128 ,2.8448 ,5.6896 ,2.6416 ,2.9464/CRAH1	
&VENT XB= 0.1016 ,0.8128 ,2.8448 ,5.6896 ,2.9464 ,2.9464 , SURF_ID='HVAC', ID='CRAH1TI'/CRAH1
&VENT XB= 0.1016 ,0.8128 ,2.8448 ,5.6896 ,2.6416 ,2.6416 , SURF_ID='HVAC', ID='CRAH1BI'/CRAH1
&VENT XB= 0.1016 ,0.1016 ,2.8448 ,5.6896 ,2.6416 ,2.9464 , SURF_ID='CRAH1S',/CRAH1
	
&SURF ID='CRAH7S',HEAT_TRANSFER_COEFFICIENT=0.,SPEC_ID(1)='SOOT2,MASS_FLUX(1)=1.,RAMP_MF='SMOKE'/
&HOLE XB= 2.6924 ,5.5372 ,16.2560 ,16.9672 ,2.6416 ,2.9464/CRAH7	
&VENT XB= 2.6924 ,5.5372 ,16.2560 ,16.9672 ,2.9464 ,2.9464 , SURF_ID='HVAC', ID='CRAH7TI'/CRAH7
&VENT XB= 2.6924 ,5.5372 ,16.2560 ,16.9672 ,2.6416 ,2.6416 , SURF_ID='HVAC', ID='CRAH7BI'/CRAH7
&VENT XB= 2.6924 ,5.5372 ,16.9672 ,16.9672 ,2.6416 ,2.9464 , SURF_ID='CRAH7S'/CRAH7

&HVAC  TYPE_ID='NODE',DUCT_ID='CRAH1DT', VENT_ID='CRAH1T',ID='CRAH1T'/
&HVAC  TYPE_ID='NODE',DUCT_ID='CRAH2DT', VENT_ID='CRAH2T',ID='CRAH2T'/
&HVAC  TYPE_ID='NODE',DUCT_ID='CRAH3DT', VENT_ID='CRAH3T',ID='CRAH3T'/
&HVAC  TYPE_ID='NODE',DUCT_ID='CRAH4DT', VENT_ID='CRAH4T',ID='CRAH4T'/
&HVAC  TYPE_ID='NODE',DUCT_ID='CRAH6DT', VENT_ID='CRAH6T',ID='CRAH6T'/
&HVAC  TYPE_ID='NODE',DUCT_ID='CRAH7DT', VENT_ID='CRAH7T',ID='CRAH7T'/

&HVAC  TYPE_ID='NODE',DUCT_ID='CRAH1DT', ID='CRAH1O',AMBIENT=.TRUE./
&HVAC  TYPE_ID='NODE',DUCT_ID='CRAH2DT', ID='CRAH2O',AMBIENT=.TRUE./
&HVAC  TYPE_ID='NODE',DUCT_ID='CRAH3DT', ID='CRAH3O',AMBIENT=.TRUE./
&HVAC  TYPE_ID='NODE',DUCT_ID='CRAH4DT', ID='CRAH4O',AMBIENT=.TRUE./
&HVAC  TYPE_ID='NODE',DUCT_ID='CRAH6DT', ID='CRAH6O',AMBIENT=.TRUE./
&HVAC  TYPE_ID='NODE',DUCT_ID='CRAH7DT', ID='CRAH7O',AMBIENT=.TRUE./

&HVAC  TYPE_ID='DUCT',NODE_ID='CRAH1T', 'CRAH1O',ID='CRAH1DT',AREA=2.7871,MASS_FLOW=1.731954687/
&HVAC  TYPE_ID='DUCT',NODE_ID='CRAH2T', 'CRAH2O',ID='CRAH2DT',AREA=2.7871,MASS_FLOW=1.731954687/
&HVAC  TYPE_ID='DUCT',NODE_ID='CRAH3T', 'CRAH3O',ID='CRAH3DT',AREA=2.7871,MASS_FLOW=1.731954687/
&HVAC  TYPE_ID='DUCT',NODE_ID='CRAH4T', 'CRAH4O',ID='CRAH4DT',AREA=2.7871,MASS_FLOW=1.731954687/
&HVAC  TYPE_ID='DUCT',NODE_ID='CRAH6T', 'CRAH6O',ID='CRAH6DT',AREA=2.7871,MASS_FLOW=1.731954687/
&HVAC  TYPE_ID='DUCT',NODE_ID='CRAH7T', 'CRAH7O',ID='CRAH7DT',AREA=2.7871,MASS_FLOW=1.731954687/

&HVAC  TYPE_ID='NODE',DUCT_ID='CRAH1DB', VENT_ID='CRAH1B',ID='CRAH1B'/
&HVAC  TYPE_ID='NODE',DUCT_ID='CRAH2DB', VENT_ID='CRAH2B',ID='CRAH2B'/
&HVAC  TYPE_ID='NODE',DUCT_ID='CRAH3DB', VENT_ID='CRAH3B',ID='CRAH3B'/
&HVAC  TYPE_ID='NODE',DUCT_ID='CRAH4DB', VENT_ID='CRAH4B',ID='CRAH4B'/
&HVAC  TYPE_ID='NODE',DUCT_ID='CRAH6DB', VENT_ID='CRAH6B',ID='CRAH6B'/
&HVAC  TYPE_ID='NODE',DUCT_ID='CRAH7DB', VENT_ID='CRAH7B',ID='CRAH7B'/

&HVAC  TYPE_ID='NODE',DUCT_ID='CRAH1I', ID='CRAH1I',AMBIENT=.TRUE./
&HVAC  TYPE_ID='NODE',DUCT_ID='CRAH2DB', ID='CRAH2I',AMBIENT=.TRUE./
&HVAC  TYPE_ID='NODE',DUCT_ID='CRAH3DB', ID='CRAH3I',AMBIENT=.TRUE./
&HVAC  TYPE_ID='NODE',DUCT_ID='CRAH4DB', ID='CRAH4I',AMBIENT=.TRUE./
&HVAC  TYPE_ID='NODE',DUCT_ID='CRAH6DB', ID='CRAH6I',AMBIENT=.TRUE./
&HVAC  TYPE_ID='NODE',DUCT_ID='CRAH7I', ID='CRAH7I',AMBIENT=.TRUE./

&HVAC TYPE_ID='NODE',DUCT_ID='CRAH1I',VENT_ID='CRAH1TI',ID='CRAH1TI'/
&HVAC TYPE_ID='NODE',DUCT_ID='CRAH1DB',VENT_ID='CRAH1BI',ID='CRAH1BI'/
&HVAC TYPE_ID='NODE',DUCT_ID='CRAH7I',VENT_ID='CRAH7TI',ID='CRAH7TI'/
&HVAC TYPE_ID='NODE',DUCT_ID='CRAH7DB',VENT_ID='CRAH7BI',ID='CRAH7BI'/

&HVAC  TYPE_ID='DUCT',NODE_ID='CRAH1I', 'CRAH1TI',ID='CRAH1I',AREA=2.7871,MASS_FLOW=1.731954687/
&HVAC  TYPE_ID='DUCT',NODE_ID='CRAH1BI', 'CRAH1B',ID='CRAH1DB',AREA=2.7871,MASS_FLOW=1.,RAMP_ID='FLOW'/
&HVAC  TYPE_ID='DUCT',NODE_ID='CRAH2I', 'CRAH2B',ID='CRAH2DB',AREA=2.7871,MASS_FLOW=1.731954687/
&HVAC  TYPE_ID='DUCT',NODE_ID='CRAH3I', 'CRAH3B',ID='CRAH3DB',AREA=2.7871,MASS_FLOW=1.731954687/
&HVAC  TYPE_ID='DUCT',NODE_ID='CRAH4I', 'CRAH4B',ID='CRAH4DB',AREA=2.7871,MASS_FLOW=1.731954687/
&HVAC  TYPE_ID='DUCT',NODE_ID='CRAH6I', 'CRAH6B',ID='CRAH6DB',AREA=2.7871,MASS_FLOW=1.731954687/
&HVAC  TYPE_ID='DUCT',NODE_ID='CRAH7I', 'CRAH7TI',ID='CRAH7I',AREA=2.7871,MASS_FLOW=1.731954687/
&HVAC  TYPE_ID='DUCT',NODE_ID='CRAH7BI', 'CRAH7B',ID='CRAH7DB',AREA=2.7871,MASS_FLOW=1.,RAMP_ID='FLOW'/

&VENT XB=3.3528,3.3528,1.8288,2.4384,0.9144,1.1176,SURF_ID='HVAC',ID='R1C1B1-F',RGB=80,80,230/
&VENT XB=3.3528,3.3528,1.8288,2.4384,1.1176,1.3208,SURF_ID='HVAC',ID='R1C1B2-F',RGB=100,100,230/
&VENT XB=3.3528,3.3528,1.8288,2.4384,1.3208,1.5240,SURF_ID='HVAC',ID='R1C1B3-F',RGB=120,120,230/
&VENT XB=3.3528,3.3528,1.8288,2.4384,1.5240,1.7272,SURF_ID='HVAC',ID='R1C1B4-F',RGB=80,80,230/
&VENT XB=3.3528,3.3528,1.8288,2.4384,1.7272,1.9304,SURF_ID='HVAC',ID='R1C1B5-F',RGB=100,100,230/
&VENT XB=3.3528,3.3528,1.8288,2.4384,1.9304,2.1336,SURF_ID='HVAC',ID='R1C1B6-F',RGB=120,120,230/
&VENT XB=3.3528,3.3528,1.8288,2.4384,2.1336,2.3368,SURF_ID='HVAC',ID='R1C1B7-F',RGB=80,80,230/
&VENT XB=3.3528,3.3528,1.8288,2.4384,2.3368,2.5400,SURF_ID='HVAC',ID='R1C1B8-F',RGB=100,100,230/
&VENT XB=3.3528,3.3528,1.8288,2.4384,2.5400,2.7432,SURF_ID='HVAC',ID='R1C1B9-F',RGB=120,120,230/
&VENT XB=3.3528,3.3528,2.4384,3.0480,0.9144,1.1176,SURF_ID='HVAC',ID='R1C2B1-F',RGB=80,80,230/
&VENT XB=3.3528,3.3528,2.4384,3.0480,1.1176,1.3208,SURF_ID='HVAC',ID='R1C2B2-F',RGB=100,100,230/
&VENT XB=3.3528,3.3528,2.4384,3.0480,1.3208,1.5240,SURF_ID='HVAC',ID='R1C2B3-F',RGB=120,120,230/
&VENT XB=3.3528,3.3528,2.4384,3.0480,1.5240,1.7272,SURF_ID='HVAC',ID='R1C2B4-F',RGB=80,80,230/
&VENT XB=3.3528,3.3528,2.4384,3.0480,1.7272,1.9304,SURF_ID='HVAC',ID='R1C2B5-F',RGB=100,100,230/
&VENT XB=3.3528,3.3528,2.4384,3.0480,1.9304,2.1336,SURF_ID='HVAC',ID='R1C2B6-F',RGB=120,120,230/
&VENT XB=3.3528,3.3528,2.4384,3.0480,2.1336,2.3368,SURF_ID='HVAC',ID='R1C2B7-F',RGB=80,80,230/
&VENT XB=3.3528,3.3528,2.4384,3.0480,2.3368,2.5400,SURF_ID='HVAC',ID='R1C2B8-F',RGB=100,100,230/
&VENT XB=3.3528,3.3528,2.4384,3.0480,2.5400,2.7432,SURF_ID='HVAC',ID='R1C2B9-F',RGB=120,120,230/
&VENT XB=3.3528,3.3528,3.0480,3.6576,0.9144,1.1176,SURF_ID='HVAC',ID='R1C3B1-F',RGB=80,80,230/
&VENT XB=3.3528,3.3528,3.0480,3.6576,1.1176,1.3208,SURF_ID='HVAC',ID='R1C3B2-F',RGB=100,100,230/
&VENT XB=3.3528,3.3528,3.0480,3.6576,1.3208,1.5240,SURF_ID='HVAC',ID='R1C3B3-F',RGB=120,120,230/
&VENT XB=3.3528,3.3528,3.0480,3.6576,1.5240,1.7272,SURF_ID='HVAC',ID='R1C3B4-F',RGB=80,80,230/
&VENT XB=3.3528,3.3528,3.0480,3.6576,1.7272,1.9304,SURF_ID='HVAC',ID='R1C3B5-F',RGB=100,100,230/
&VENT XB=3.3528,3.3528,3.0480,3.6576,1.9304,2.1336,SURF_ID='HVAC',ID='R1C3B6-F',RGB=120,120,230/
&VENT XB=3.3528,3.3528,3.0480,3.6576,2.1336,2.3368,SURF_ID='HVAC',ID='R1C3B7-F',RGB=80,80,230/
&VENT XB=3.3528,3.3528,3.0480,3.6576,2.3368,2.5400,SURF_ID='HVAC',ID='R1C3B8-F',RGB=100,100,230/
&VENT XB=3.3528,3.3528,3.0480,3.6576,2.5400,2.7432,SURF_ID='HVAC',ID='R1C3B9-F',RGB=120,120,230/
&VENT XB=3.3528,3.3528,3.6576,4.2672,0.9144,1.1176,SURF_ID='HVAC',ID='R1C4B1-F',RGB=80,80,230/
&VENT XB=3.3528,3.3528,3.6576,4.2672,1.1176,1.3208,SURF_ID='HVAC',ID='R1C4B2-F',RGB=100,100,230/
&VENT XB=3.3528,3.3528,3.6576,4.2672,1.3208,1.5240,SURF_ID='HVAC',ID='R1C4B3-F',RGB=120,120,230/
&VENT XB=3.3528,3.3528,3.6576,4.2672,1.5240,1.7272,SURF_ID='HVAC',ID='R1C4B4-F',RGB=80,80,230/
&VENT XB=3.3528,3.3528,3.6576,4.2672,1.7272,1.9304,SURF_ID='HVAC',ID='R1C4B5-F',RGB=100,100,230/
&VENT XB=3.3528,3.3528,3.6576,4.2672,1.9304,2.1336,SURF_ID='HVAC',ID='R1C4B6-F',RGB=120,120,230/
&VENT XB=3.3528,3.3528,3.6576,4.2672,2.1336,2.3368,SURF_ID='HVAC',ID='R1C4B7-F',RGB=80,80,230/
&VENT XB=3.3528,3.3528,3.6576,4.2672,2.3368,2.5400,SURF_ID='HVAC',ID='R1C4B8-F',RGB=100,100,230/
&VENT XB=3.3528,3.3528,3.6576,4.2672,2.5400,2.7432,SURF_ID='HVAC',ID='R1C4B9-F',RGB=120,120,230/
&VENT XB=3.3528,3.3528,4.2672,4.8768,0.9144,1.1176,SURF_ID='HVAC',ID='R1C5B1-F',RGB=80,80,230/
&VENT XB=3.3528,3.3528,4.2672,4.8768,1.1176,1.3208,SURF_ID='HVAC',ID='R1C5B2-F',RGB=100,100,230/
&VENT XB=3.3528,3.3528,4.2672,4.8768,1.3208,1.5240,SURF_ID='HVAC',ID='R1C5B3-F',RGB=120,120,230/
&VENT XB=3.3528,3.3528,4.2672,4.8768,1.5240,1.7272,SURF_ID='HVAC',ID='R1C5B4-F',RGB=80,80,230/
&VENT XB=3.3528,3.3528,4.2672,4.8768,1.7272,1.9304,SURF_ID='HVAC',ID='R1C5B5-F',RGB=100,100,230/
&VENT XB=3.3528,3.3528,4.2672,4.8768,1.9304,2.1336,SURF_ID='HVAC',ID='R1C5B6-F',RGB=120,120,230/
&VENT XB=3.3528,3.3528,4.2672,4.8768,2.1336,2.3368,SURF_ID='HVAC',ID='R1C5B7-F',RGB=80,80,230/
&VENT XB=3.3528,3.3528,4.2672,4.8768,2.3368,2.5400,SURF_ID='HVAC',ID='R1C5B8-F',RGB=100,100,230/
&VENT XB=3.3528,3.3528,4.2672,4.8768,2.5400,2.7432,SURF_ID='HVAC',ID='R1C5B9-F',RGB=120,120,230/
&VENT XB=3.3528,3.3528,4.8768,5.4864,0.9144,1.1176,SURF_ID='HVAC',ID='R1C6B1-F',RGB=80,80,230/
&VENT XB=3.3528,3.3528,4.8768,5.4864,1.1176,1.3208,SURF_ID='HVAC',ID='R1C6B2-F',RGB=100,100,230/
&VENT XB=3.3528,3.3528,4.8768,5.4864,1.3208,1.5240,SURF_ID='HVAC',ID='R1C6B3-F',RGB=120,120,230/
&VENT XB=3.3528,3.3528,4.8768,5.4864,1.5240,1.7272,SURF_ID='HVAC',ID='R1C6B4-F',RGB=80,80,230/
&VENT XB=3.3528,3.3528,4.8768,5.4864,1.7272,1.9304,SURF_ID='HVAC',ID='R1C6B5-F',RGB=100,100,230/
&VENT XB=3.3528,3.3528,4.8768,5.4864,1.9304,2.1336,SURF_ID='HVAC',ID='R1C6B6-F',RGB=120,120,230/
&VENT XB=3.3528,3.3528,4.8768,5.4864,2.1336,2.3368,SURF_ID='HVAC',ID='R1C6B7-F',RGB=80,80,230/
&VENT XB=3.3528,3.3528,4.8768,5.4864,2.3368,2.5400,SURF_ID='HVAC',ID='R1C6B8-F',RGB=100,100,230/
&VENT XB=3.3528,3.3528,4.8768,5.4864,2.5400,2.7432,SURF_ID='HVAC',ID='R1C6B9-F',RGB=120,120,230/
&VENT XB=3.3528,3.3528,5.4864,6.0960,0.9144,1.1176,SURF_ID='HVAC',ID='R1C7B1-F',RGB=80,80,230/
&VENT XB=3.3528,3.3528,5.4864,6.0960,1.1176,1.3208,SURF_ID='HVAC',ID='R1C7B2-F',RGB=100,100,230/
&VENT XB=3.3528,3.3528,5.4864,6.0960,1.3208,1.5240,SURF_ID='HVAC',ID='R1C7B3-F',RGB=120,120,230/
&VENT XB=3.3528,3.3528,5.4864,6.0960,1.5240,1.7272,SURF_ID='HVAC',ID='R1C7B4-F',RGB=80,80,230/
&VENT XB=3.3528,3.3528,5.4864,6.0960,1.7272,1.9304,SURF_ID='HVAC',ID='R1C7B5-F',RGB=100,100,230/
&VENT XB=3.3528,3.3528,5.4864,6.0960,1.9304,2.1336,SURF_ID='HVAC',ID='R1C7B6-F',RGB=120,120,230/
&VENT XB=3.3528,3.3528,5.4864,6.0960,2.1336,2.3368,SURF_ID='HVAC',ID='R1C7B7-F',RGB=80,80,230/
&VENT XB=3.3528,3.3528,5.4864,6.0960,2.3368,2.5400,SURF_ID='HVAC',ID='R1C7B8-F',RGB=100,100,230/
&VENT XB=3.3528,3.3528,5.4864,6.0960,2.5400,2.7432,SURF_ID='HVAC',ID='R1C7B9-F',RGB=120,120,230/
&VENT XB=3.3528,3.3528,6.0960,6.7056,0.9144,1.1176,SURF_ID='HVAC',ID='R1C8B1-F',RGB=80,80,230/
&VENT XB=3.3528,3.3528,6.0960,6.7056,1.1176,1.3208,SURF_ID='HVAC',ID='R1C8B2-F',RGB=100,100,230/
&VENT XB=3.3528,3.3528,6.0960,6.7056,1.3208,1.5240,SURF_ID='HVAC',ID='R1C8B3-F',RGB=120,120,230/
&VENT XB=3.3528,3.3528,6.0960,6.7056,1.5240,1.7272,SURF_ID='HVAC',ID='R1C8B4-F',RGB=80,80,230/
&VENT XB=3.3528,3.3528,6.0960,6.7056,1.7272,1.9304,SURF_ID='HVAC',ID='R1C8B5-F',RGB=100,100,230/
&VENT XB=3.3528,3.3528,6.0960,6.7056,1.9304,2.1336,SURF_ID='HVAC',ID='R1C8B6-F',RGB=120,120,230/
&VENT XB=3.3528,3.3528,6.0960,6.7056,2.1336,2.3368,SURF_ID='HVAC',ID='R1C8B7-F',RGB=80,80,230/
&VENT XB=3.3528,3.3528,6.0960,6.7056,2.3368,2.5400,SURF_ID='HVAC',ID='R1C8B8-F',RGB=100,100,230/
&VENT XB=3.3528,3.3528,6.0960,6.7056,2.5400,2.7432,SURF_ID='HVAC',ID='R1C8B9-F',RGB=120,120,230/
&VENT XB=3.3528,3.3528,6.7056,7.3152,0.9144,1.1176,SURF_ID='HVAC',ID='R1C9B1-F',RGB=80,80,230/
&VENT XB=3.3528,3.3528,6.7056,7.3152,1.1176,1.3208,SURF_ID='HVAC',ID='R1C9B2-F',RGB=100,100,230/
&VENT XB=3.3528,3.3528,6.7056,7.3152,1.3208,1.5240,SURF_ID='HVAC',ID='R1C9B3-F',RGB=120,120,230/
&VENT XB=3.3528,3.3528,6.7056,7.3152,1.5240,1.7272,SURF_ID='HVAC',ID='R1C9B4-F',RGB=80,80,230/
&VENT XB=3.3528,3.3528,6.7056,7.3152,1.7272,1.9304,SURF_ID='HVAC',ID='R1C9B5-F',RGB=100,100,230/
&VENT XB=3.3528,3.3528,6.7056,7.3152,1.9304,2.1336,SURF_ID='HVAC',ID='R1C9B6-F',RGB=120,120,230/
&VENT XB=3.3528,3.3528,6.7056,7.3152,2.1336,2.3368,SURF_ID='HVAC',ID='R1C9B7-F',RGB=80,80,230/
&VENT XB=3.3528,3.3528,6.7056,7.3152,2.3368,2.5400,SURF_ID='HVAC',ID='R1C9B8-F',RGB=100,100,230/
&VENT XB=3.3528,3.3528,6.7056,7.3152,2.5400,2.7432,SURF_ID='HVAC',ID='R1C9B9-F',RGB=120,120,230/
&VENT XB=3.3528,3.3528,7.3152,7.9248,0.9144,1.1176,SURF_ID='HVAC',ID='R1C10B1-F',RGB=80,80,230/
&VENT XB=3.3528,3.3528,7.3152,7.9248,1.1176,1.3208,SURF_ID='HVAC',ID='R1C10B2-F',RGB=100,100,230/
&VENT XB=3.3528,3.3528,7.3152,7.9248,1.3208,1.5240,SURF_ID='HVAC',ID='R1C10B3-F',RGB=120,120,230/
&VENT XB=3.3528,3.3528,7.3152,7.9248,1.5240,1.7272,SURF_ID='HVAC',ID='R1C10B4-F',RGB=80,80,230/
&VENT XB=3.3528,3.3528,7.3152,7.9248,1.7272,1.9304,SURF_ID='HVAC',ID='R1C10B5-F',RGB=100,100,230/
&VENT XB=3.3528,3.3528,7.3152,7.9248,1.9304,2.1336,SURF_ID='HVAC',ID='R1C10B6-F',RGB=120,120,230/
&VENT XB=3.3528,3.3528,7.3152,7.9248,2.1336,2.3368,SURF_ID='HVAC',ID='R1C10B7-F',RGB=80,80,230/
&VENT XB=3.3528,3.3528,7.3152,7.9248,2.3368,2.5400,SURF_ID='HVAC',ID='R1C10B8-F',RGB=100,100,230/
&VENT XB=3.3528,3.3528,7.3152,7.9248,2.5400,2.7432,SURF_ID='HVAC',ID='R1C10B9-F',RGB=120,120,230/
&VENT XB=4.5720,4.5720,1.8288,2.4384,0.9144,1.1176,SURF_ID='HVAC',ID='R2C1B1-F',RGB=80,80,230/
&VENT XB=4.5720,4.5720,1.8288,2.4384,1.1176,1.3208,SURF_ID='HVAC',ID='R2C1B2-F',RGB=100,100,230/
&VENT XB=4.5720,4.5720,1.8288,2.4384,1.3208,1.5240,SURF_ID='HVAC',ID='R2C1B3-F',RGB=120,120,230/
&VENT XB=4.5720,4.5720,1.8288,2.4384,1.5240,1.7272,SURF_ID='HVAC',ID='R2C1B4-F',RGB=80,80,230/
&VENT XB=4.5720,4.5720,1.8288,2.4384,1.7272,1.9304,SURF_ID='HVAC',ID='R2C1B5-F',RGB=100,100,230/
&VENT XB=4.5720,4.5720,1.8288,2.4384,1.9304,2.1336,SURF_ID='HVAC',ID='R2C1B6-F',RGB=120,120,230/
&VENT XB=4.5720,4.5720,1.8288,2.4384,2.1336,2.3368,SURF_ID='HVAC',ID='R2C1B7-F',RGB=80,80,230/
&VENT XB=4.5720,4.5720,1.8288,2.4384,2.3368,2.5400,SURF_ID='HVAC',ID='R2C1B8-F',RGB=100,100,230/
&VENT XB=4.5720,4.5720,1.8288,2.4384,2.5400,2.7432,SURF_ID='HVAC',ID='R2C1B9-F',RGB=120,120,230/
&VENT XB=4.5720,4.5720,2.4384,3.0480,0.9144,1.1176,SURF_ID='HVAC',ID='R2C2B1-F',RGB=80,80,230/
&VENT XB=4.5720,4.5720,2.4384,3.0480,1.1176,1.3208,SURF_ID='HVAC',ID='R2C2B2-F',RGB=100,100,230/
&VENT XB=4.5720,4.5720,2.4384,3.0480,1.3208,1.5240,SURF_ID='HVAC',ID='R2C2B3-F',RGB=120,120,230/
&VENT XB=4.5720,4.5720,2.4384,3.0480,1.5240,1.7272,SURF_ID='HVAC',ID='R2C2B4-F',RGB=80,80,230/
&VENT XB=4.5720,4.5720,2.4384,3.0480,1.7272,1.9304,SURF_ID='HVAC',ID='R2C2B5-F',RGB=100,100,230/
&VENT XB=4.5720,4.5720,2.4384,3.0480,1.9304,2.1336,SURF_ID='HVAC',ID='R2C2B6-F',RGB=120,120,230/
&VENT XB=4.5720,4.5720,2.4384,3.0480,2.1336,2.3368,SURF_ID='HVAC',ID='R2C2B7-F',RGB=80,80,230/
&VENT XB=4.5720,4.5720,2.4384,3.0480,2.3368,2.5400,SURF_ID='HVAC',ID='R2C2B8-F',RGB=100,100,230/
&VENT XB=4.5720,4.5720,2.4384,3.0480,2.5400,2.7432,SURF_ID='HVAC',ID='R2C2B9-F',RGB=120,120,230/
&VENT XB=4.5720,4.5720,3.0480,3.6576,0.9144,1.1176,SURF_ID='HVAC',ID='R2C3B1-F',RGB=80,80,230/
&VENT XB=4.5720,4.5720,3.0480,3.6576,1.1176,1.3208,SURF_ID='HVAC',ID='R2C3B2-F',RGB=100,100,230/
&VENT XB=4.5720,4.5720,3.0480,3.6576,1.3208,1.5240,SURF_ID='HVAC',ID='R2C3B3-F',RGB=120,120,230/
&VENT XB=4.5720,4.5720,3.0480,3.6576,1.5240,1.7272,SURF_ID='HVAC',ID='R2C3B4-F',RGB=80,80,230/
&VENT XB=4.5720,4.5720,3.0480,3.6576,1.7272,1.9304,SURF_ID='HVAC',ID='R2C3B5-F',RGB=100,100,230/
&VENT XB=4.5720,4.5720,3.0480,3.6576,1.9304,2.1336,SURF_ID='HVAC',ID='R2C3B6-F',RGB=120,120,230/
&VENT XB=4.5720,4.5720,3.0480,3.6576,2.1336,2.3368,SURF_ID='HVAC',ID='R2C3B7-F',RGB=80,80,230/
&VENT XB=4.5720,4.5720,3.0480,3.6576,2.3368,2.5400,SURF_ID='HVAC',ID='R2C3B8-F',RGB=100,100,230/
&VENT XB=4.5720,4.5720,3.0480,3.6576,2.5400,2.7432,SURF_ID='HVAC',ID='R2C3B9-F',RGB=120,120,230/
&VENT XB=4.5720,4.5720,3.6576,4.2672,0.9144,1.1176,SURF_ID='HVAC',ID='R2C4B1-F',RGB=80,80,230/
&VENT XB=4.5720,4.5720,3.6576,4.2672,1.1176,1.3208,SURF_ID='HVAC',ID='R2C4B2-F',RGB=100,100,230/
&VENT XB=4.5720,4.5720,3.6576,4.2672,1.3208,1.5240,SURF_ID='HVAC',ID='R2C4B3-F',RGB=120,120,230/
&VENT XB=4.5720,4.5720,3.6576,4.2672,1.5240,1.7272,SURF_ID='HVAC',ID='R2C4B4-F',RGB=80,80,230/
&VENT XB=4.5720,4.5720,3.6576,4.2672,1.7272,1.9304,SURF_ID='HVAC',ID='R2C4B5-F',RGB=100,100,230/
&VENT XB=4.5720,4.5720,3.6576,4.2672,1.9304,2.1336,SURF_ID='HVAC',ID='R2C4B6-F',RGB=120,120,230/
&VENT XB=4.5720,4.5720,3.6576,4.2672,2.1336,2.3368,SURF_ID='HVAC',ID='R2C4B7-F',RGB=80,80,230/
&VENT XB=4.5720,4.5720,3.6576,4.2672,2.3368,2.5400,SURF_ID='HVAC',ID='R2C4B8-F',RGB=100,100,230/
&VENT XB=4.5720,4.5720,3.6576,4.2672,2.5400,2.7432,SURF_ID='HVAC',ID='R2C4B9-F',RGB=120,120,230/
&VENT XB=4.5720,4.5720,4.2672,4.8768,0.9144,1.1176,SURF_ID='HVAC',ID='R2C5B1-F',RGB=80,80,230/
&VENT XB=4.5720,4.5720,4.2672,4.8768,1.1176,1.3208,SURF_ID='HVAC',ID='R2C5B2-F',RGB=100,100,230/
&VENT XB=4.5720,4.5720,4.2672,4.8768,1.3208,1.5240,SURF_ID='HVAC',ID='R2C5B3-F',RGB=120,120,230/
&VENT XB=4.5720,4.5720,4.2672,4.8768,1.5240,1.7272,SURF_ID='HVAC',ID='R2C5B4-F',RGB=80,80,230/
&VENT XB=4.5720,4.5720,4.2672,4.8768,1.7272,1.9304,SURF_ID='HVAC',ID='R2C5B5-F',RGB=100,100,230/
&VENT XB=4.5720,4.5720,4.2672,4.8768,1.9304,2.1336,SURF_ID='HVAC',ID='R2C5B6-F',RGB=120,120,230/
&VENT XB=4.5720,4.5720,4.2672,4.8768,2.1336,2.3368,SURF_ID='HVAC',ID='R2C5B7-F',RGB=80,80,230/
&VENT XB=4.5720,4.5720,4.2672,4.8768,2.3368,2.5400,SURF_ID='HVAC',ID='R2C5B8-F',RGB=100,100,230/
&VENT XB=4.5720,4.5720,4.2672,4.8768,2.5400,2.7432,SURF_ID='HVAC',ID='R2C5B9-F',RGB=120,120,230/
&VENT XB=4.5720,4.5720,4.8768,5.4864,0.9144,1.1176,SURF_ID='HVAC',ID='R2C6B1-F',RGB=80,80,230/
&VENT XB=4.5720,4.5720,4.8768,5.4864,1.1176,1.3208,SURF_ID='HVAC',ID='R2C6B2-F',RGB=100,100,230/
&VENT XB=4.5720,4.5720,4.8768,5.4864,1.3208,1.5240,SURF_ID='HVAC',ID='R2C6B3-F',RGB=120,120,230/
&VENT XB=4.5720,4.5720,4.8768,5.4864,1.5240,1.7272,SURF_ID='HVAC',ID='R2C6B4-F',RGB=80,80,230/
&VENT XB=4.5720,4.5720,4.8768,5.4864,1.7272,1.9304,SURF_ID='HVAC',ID='R2C6B5-F',RGB=100,100,230/
&VENT XB=4.5720,4.5720,4.8768,5.4864,1.9304,2.1336,SURF_ID='HVAC',ID='R2C6B6-F',RGB=120,120,230/
&VENT XB=4.5720,4.5720,4.8768,5.4864,2.1336,2.3368,SURF_ID='HVAC',ID='R2C6B7-F',RGB=80,80,230/
&VENT XB=4.5720,4.5720,4.8768,5.4864,2.3368,2.5400,SURF_ID='HVAC',ID='R2C6B8-F',RGB=100,100,230/
&VENT XB=4.5720,4.5720,4.8768,5.4864,2.5400,2.7432,SURF_ID='HVAC',ID='R2C6B9-F',RGB=120,120,230/
&VENT XB=4.5720,4.5720,5.4864,6.0960,0.9144,1.1176,SURF_ID='HVAC',ID='R2C7B1-F',RGB=80,80,230/
&VENT XB=4.5720,4.5720,5.4864,6.0960,1.1176,1.3208,SURF_ID='HVAC',ID='R2C7B2-F',RGB=100,100,230/
&VENT XB=4.5720,4.5720,5.4864,6.0960,1.3208,1.5240,SURF_ID='HVAC',ID='R2C7B3-F',RGB=120,120,230/
&VENT XB=4.5720,4.5720,5.4864,6.0960,1.5240,1.7272,SURF_ID='HVAC',ID='R2C7B4-F',RGB=80,80,230/
&VENT XB=4.5720,4.5720,5.4864,6.0960,1.7272,1.9304,SURF_ID='HVAC',ID='R2C7B5-F',RGB=100,100,230/
&VENT XB=4.5720,4.5720,5.4864,6.0960,1.9304,2.1336,SURF_ID='HVAC',ID='R2C7B6-F',RGB=120,120,230/
&VENT XB=4.5720,4.5720,5.4864,6.0960,2.1336,2.3368,SURF_ID='HVAC',ID='R2C7B7-F',RGB=80,80,230/
&VENT XB=4.5720,4.5720,5.4864,6.0960,2.3368,2.5400,SURF_ID='HVAC',ID='R2C7B8-F',RGB=100,100,230/
&VENT XB=4.5720,4.5720,5.4864,6.0960,2.5400,2.7432,SURF_ID='HVAC',ID='R2C7B9-F',RGB=120,120,230/
&VENT XB=4.5720,4.5720,6.0960,6.7056,0.9144,1.1176,SURF_ID='HVAC',ID='R2C8B1-F',RGB=80,80,230/
&VENT XB=4.5720,4.5720,6.0960,6.7056,1.1176,1.3208,SURF_ID='HVAC',ID='R2C8B2-F',RGB=100,100,230/
&VENT XB=4.5720,4.5720,6.0960,6.7056,1.3208,1.5240,SURF_ID='HVAC',ID='R2C8B3-F',RGB=120,120,230/
&VENT XB=4.5720,4.5720,6.0960,6.7056,1.5240,1.7272,SURF_ID='HVAC',ID='R2C8B4-F',RGB=80,80,230/
&VENT XB=4.5720,4.5720,6.0960,6.7056,1.7272,1.9304,SURF_ID='HVAC',ID='R2C8B5-F',RGB=100,100,230/
&VENT XB=4.5720,4.5720,6.0960,6.7056,1.9304,2.1336,SURF_ID='HVAC',ID='R2C8B6-F',RGB=120,120,230/
&VENT XB=4.5720,4.5720,6.0960,6.7056,2.1336,2.3368,SURF_ID='HVAC',ID='R2C8B7-F',RGB=80,80,230/
&VENT XB=4.5720,4.5720,6.0960,6.7056,2.3368,2.5400,SURF_ID='HVAC',ID='R2C8B8-F',RGB=100,100,230/
&VENT XB=4.5720,4.5720,6.0960,6.7056,2.5400,2.7432,SURF_ID='HVAC',ID='R2C8B9-F',RGB=120,120,230/
&VENT XB=4.5720,4.5720,6.7056,7.3152,0.9144,1.1176,SURF_ID='HVAC',ID='R2C9B1-F',RGB=80,80,230/
&VENT XB=4.5720,4.5720,6.7056,7.3152,1.1176,1.3208,SURF_ID='HVAC',ID='R2C9B2-F',RGB=100,100,230/
&VENT XB=4.5720,4.5720,6.7056,7.3152,1.3208,1.5240,SURF_ID='HVAC',ID='R2C9B3-F',RGB=120,120,230/