
&MESH IJK=15,20,20, XB=-0.60, 0.00,-0.40,0.40,-0.32,0.48, MULT_ID='mesh' /
&MULT ID='mesh', DX=0.6, DY=0.8, DZ=0.8, I_UPPER=1, J_UPPER=0, K_UPPER=5 /

