
&OBST XB = -0.30,  0.30, -0.15,  0.15, -0.30, 0.00, SURF_IDS = 'BURNER','STEEL','STEEL' /
&OBST XB = -0.30,  0.30,  0.15,  0.17,  0.00, 2.44, SURF_ID6 = 'STEEL','STEEL','SAMPLE FRONT','SAMPLE BACK','STEEL','STEEL'  /
&OBST XB = -0.30,  0.30, -0.17, -0.15,  0.00, 2.44, SURF_ID6 = 'STEEL','STEEL','SAMPLE BACK','SAMPLE FRONT','STEEL','STEEL'  /

&VENT MB='XMIN', SURF_ID='OPEN' /
&VENT MB='XMAX', SURF_ID='OPEN' /
&VENT MB='YMIN', SURF_ID='OPEN' /
&VENT MB='YMAX', SURF_ID='OPEN' /
&VENT MB='ZMAX', SURF_ID='OPEN' /

