&HEAD CHID='PBT_1_cm', TITLE='Parallel Panel Test, PBT, Propane, 60 kW' /

&CATF OTHER_FILES='Mesh_1_cm.txt','PBT_Reactions.txt','Common_Materials.txt','Burner.txt','Panels.txt','Output.txt' /

&TIME T_END=900.0 /

&TAIL /
