
&SPEC ID = 'PVC', FORMULA = 'C2H3Cl' /
&SPEC ID = 'OXYGEN', LUMPED_COMPONENT_ONLY = .TRUE. /
&SPEC ID = 'NITROGEN', LUMPED_COMPONENT_ONLY = .TRUE. /
&SPEC ID = 'HYDROGEN CHLORIDE', LUMPED_COMPONENT_ONLY = .TRUE. /
&SPEC ID = 'WATER VAPOR', LUMPED_COMPONENT_ONLY = .TRUE. /
&SPEC ID = 'CARBON MONOXIDE', LUMPED_COMPONENT_ONLY = .TRUE. /
&SPEC ID = 'CARBON DIOXIDE', LUMPED_COMPONENT_ONLY = .TRUE. /
&SPEC ID = 'SOOT',FORMULA='C', LUMPED_COMPONENT_ONLY = .TRUE. /

&SPEC ID='AIR', BACKGROUND=.TRUE.
      SPEC_ID(1)='OXYGEN', VOLUME_FRACTION(1)=1.53,
      SPEC_ID(2)='NITROGEN', VOLUME_FRACTION(2)=5.76 /
&SPEC ID='PVC PRODUCTS',
      SPEC_ID(1)='HYDROGEN CHLORIDE', VOLUME_FRACTION(1)=1.0,
      SPEC_ID(2)='WATER VAPOR', VOLUME_FRACTION(2)=1.0,
      SPEC_ID(3)='CARBON MONOXIDE', VOLUME_FRACTION(3)=0.14,
      SPEC_ID(4)='CARBON DIOXIDE', VOLUME_FRACTION(4)=0.96,
      SPEC_ID(5)='SOOT', VOLUME_FRACTION(5)=0.90,
      SPEC_ID(6)='NITROGEN', VOLUME_FRACTION(6)=5.76 /
&SPEC ID = 'PROPANE', FORMULA = 'C3H8' /
&SPEC ID='C3H8 PRODUCTS',
      SPEC_ID(1)='WATER VAPOR', VOLUME_FRACTION(1)=4.,
      SPEC_ID(2)='CARBON DIOXIDE', VOLUME_FRACTION(2)=3.,
      SPEC_ID(3)='NITROGEN', VOLUME_FRACTION(3)=18.82352941 /

&REAC FUEL='PVC', HEAT_OF_COMBUSTION=16400, SPEC_ID_NU='PVC','AIR','PVC PRODUCTS', NU=-1,-1,1 /
&REAC FUEL='PROPANE', HEAT_OF_COMBUSTION=43600, SPEC_ID_NU='PROPANE','AIR','C3H8 PRODUCTS', NU=-1,-3.267973856,1, RADIATIVE_FRACTION=0.29 /

&SURF ID = 'SAMPLE FRONT'
      COLOR = 'BLACK'
      MATL_ID = 'PVC','MARINITE'
      STRETCH_FACTOR(1:2) = 1.,2.
      THICKNESS = 0.00635,0.0254 /

&SURF ID = 'SAMPLE BACK'
      COLOR = 'BEIGE'
      MATL_ID = 'MARINITE','PVC'
      STRETCH_FACTOR(1:2) = 2.,1.
      THICKNESS = 0.0254,0.00635 /

&MATL ID='PVC'
      ABSORPTION_COEFFICIENT=2145.
      N_REACTIONS=1
      A(1) = 1.4E33
      E(1) = 3.67E5
      EMISSIVITY=0.90
      DENSITY=1430.
      SPEC_ID='PVC'
      NU_SPEC=0.56
      MATL_ID='CHAR 1'
      NU_MATL=0.44
      HEAT_OF_REACTION=170.
      HEAT_OF_COMBUSTION=2025.
      CONDUCTIVITY = 0.17
      SPECIFIC_HEAT = 1.55 /

&MATL ID='CHAR 1'
      ABSORPTION_COEFFICIENT=2453.
      N_REACTIONS=1
      A(1) = 3.5E12
      E(1) = 2.07E5
      EMISSIVITY=0.90
      DENSITY=629.
      SPEC_ID='PVC'
      NU_SPEC=0.53
      MATL_ID='CHAR 2'
      NU_MATL=0.47
      HEAT_OF_REACTION=1200.
      HEAT_OF_COMBUSTION=27375.
      CONDUCTIVITY = 0.17
      SPECIFIC_HEAT = 1.55 /

&MATL ID='CHAR 2'
      ABSORPTION_COEFFICIENT=29600.
      EMISSIVITY=0.85
      DENSITY=296.
      CONDUCTIVITY=0.26
      SPECIFIC_HEAT=1.72 /

