
&SPEC ID = 'PVC',               FORMULA = 'C2H3Cl' /
&SPEC ID = 'OXYGEN',            LUMPED_COMPONENT_ONLY=T /
&SPEC ID = 'NITROGEN',          LUMPED_COMPONENT_ONLY=T /
&SPEC ID = 'HYDROGEN CHLORIDE', LUMPED_COMPONENT_ONLY=T /
&SPEC ID = 'WATER VAPOR',       LUMPED_COMPONENT_ONLY=T /
&SPEC ID = 'CARBON MONOXIDE',   LUMPED_COMPONENT_ONLY=T /
&SPEC ID = 'CARBON DIOXIDE',    LUMPED_COMPONENT_ONLY=T /
&SPEC ID = 'SOOT',FORMULA='C',  LUMPED_COMPONENT_ONLY=T /

y_s=0.172, y_CO=0.063, 5th SFPE Handbook, Table A.39

&SPEC ID='PVC PRODUCTS',
      SPEC_ID(1)='HYDROGEN CHLORIDE', VOLUME_FRACTION(1)=0.09083142 
      SPEC_ID(2)='WATER VAPOR',       VOLUME_FRACTION(2)=0.09953647 
      SPEC_ID(3)='CARBON MONOXIDE',   VOLUME_FRACTION(3)=0.00531934 
      SPEC_ID(4)='CARBON DIOXIDE',    VOLUME_FRACTION(4)=0.1428301 
      SPEC_ID(5)='SOOT',              VOLUME_FRACTION(5)=0.03386818 
      SPEC_ID(6)='NITROGEN',          VOLUME_FRACTION(6)=0.7184459 /

&REAC FUEL='PVC', HEAT_OF_COMBUSTION=16400, SPEC_ID_NU='PVC','AIR','PVC PRODUCTS', NU=-1,-10.107256,11.009406 /

&SURF ID = 'SAMPLE FRONT'
      COLOR = 'BLACK'
      MATL_ID = 'PVC','MARINITE'
      STRETCH_FACTOR(1:2) = 1.,2.
      THICKNESS = 0.00635,0.0254 /

&SURF ID = 'SAMPLE BACK'
      COLOR = 'BEIGE'
      MATL_ID = 'MARINITE','PVC'
      STRETCH_FACTOR(1:2) = 2.,1.
      THICKNESS = 0.0254,0.00635 /

&MATL ID='PVC'
      ABSORPTION_COEFFICIENT=2145.
      N_REACTIONS=1
      A(1) = 1.4E33
      E(1) = 3.67E5
      EMISSIVITY=0.90
      DENSITY=1430.
      SPEC_ID='PVC'
      NU_SPEC=0.56
      MATL_ID='CHAR 1'
      NU_MATL=0.44
      HEAT_OF_REACTION=170.
      HEAT_OF_COMBUSTION=2025.
      CONDUCTIVITY = 0.17
      SPECIFIC_HEAT = 1.55 /

&MATL ID='CHAR 1'
      ABSORPTION_COEFFICIENT=2453.
      N_REACTIONS=1
      A(1) = 3.5E12
      E(1) = 2.07E5
      EMISSIVITY=0.90
      DENSITY=629.
      SPEC_ID='PVC'
      NU_SPEC=0.53
      MATL_ID='CHAR 2'
      NU_MATL=0.47
      HEAT_OF_REACTION=1200.
      HEAT_OF_COMBUSTION=27375.
      CONDUCTIVITY = 0.17
      SPECIFIC_HEAT = 1.55 /

&MATL ID='CHAR 2'
      ABSORPTION_COEFFICIENT=29600.
      EMISSIVITY=0.85
      DENSITY=296.
      CONDUCTIVITY=0.26
      SPECIFIC_HEAT=1.72 /

