
&SPEC ID = 'WATER VAPOR' /
&SPEC ID='Gas1', FORMULA='C0.8O0.8H1.8', RADCAL_ID='PROPANE', SPECIFIC_HEAT=2.100/
&SPEC ID='Gas2', FORMULA='C0.8O0.8H1.8', RADCAL_ID='PROPANE', SPECIFIC_HEAT=2.100/
&SPEC ID='Gas3', FORMULA='C0.8O0.8H1.8', RADCAL_ID='PROPANE', SPECIFIC_HEAT=2.100/
&SPEC ID='Gas4', FORMULA='C0.8O0.8H1.8', RADCAL_ID='PROPANE', SPECIFIC_HEAT=2.100/
&SPEC ID='Gas5', FORMULA='C0.8O0.8H1.8', RADCAL_ID='PROPANE', SPECIFIC_HEAT=2.100/

&REAC FUEL='Gas1', SOOT_YIELD=0.022, CO_YIELD=0.003, RADIATIVE_FRACTION=0.35, HEAT_OF_COMBUSTION=11500 /
&REAC FUEL='Gas2', SOOT_YIELD=0.022, CO_YIELD=0.003, RADIATIVE_FRACTION=0.35, HEAT_OF_COMBUSTION=14800 /
&REAC FUEL='Gas3', SOOT_YIELD=0.022, CO_YIELD=0.003, RADIATIVE_FRACTION=0.35, HEAT_OF_COMBUSTION=13600 /
&REAC FUEL='Gas4', SOOT_YIELD=0.022, CO_YIELD=0.003, RADIATIVE_FRACTION=0.35, HEAT_OF_COMBUSTION=18000 /
&REAC FUEL='Gas5', SOOT_YIELD=0.022, CO_YIELD=0.003, RADIATIVE_FRACTION=0.35, HEAT_OF_COMBUSTION=5000 /

&MATL ID='water'
      REFERENCE_TEMPERATURE = 100.
      DENSITY = 1000.
      SPEC_ID = 'WATER VAPOR'
      NU_SPEC = 1.
      CONDUCTIVITY = 0.6
      SPECIFIC_HEAT_RAMP = 'cp_water'
      HEAT_OF_REACTION = 2780. /

&MATL ID='WRC'
      A(1) = 1.4E8
      E(1) = 1.05E5
      EMISSIVITY = 0.81
      DENSITY = 376.
      SPEC_ID = 'Gas1'
      NU_SPEC = 0.048
      MATL_ID = 'WRC1'
      NU_MATL = 0.952
      CONDUCTIVITY = 0.128
      SPECIFIC_HEAT_RAMP = 'cp_WRC'
      HEAT_OF_REACTION = 26. /

&MATL ID='WRC1'
      A(1) = 2.57E6
      E(1) = 1.01E5
      EMISSIVITY = 0.79
      DENSITY = 348.
      SPEC_ID = 'Gas2'
      NU_SPEC = 0.373
      MATL_ID = 'WRC2'
      NU_MATL = 0.627
      CONDUCTIVITY = 0.085
      SPECIFIC_HEAT_RAMP = 'cp_WRC1'
      HEAT_OF_REACTION = 77. /

&MATL ID='WRC2'
      A(1) = 5.69E18
      E(1) = 2.55E5
      EMISSIVITY = 0.76
      DENSITY = 218.
      SPEC_ID = 'Gas3'
      NU_SPEC = 0.477
      MATL_ID = 'WRC3'
      NU_MATL = 0.523
      CONDUCTIVITY = 0.085
      SPECIFIC_HEAT_RAMP = 'cp_WRC2'
      HEAT_OF_REACTION = 280. /

&MATL ID='WRC3'
      A(1) = 5.48E-2
      E(1) = 1.88E4
      EMISSIVITY = 0.74
      DENSITY = 114.
      SPEC_ID = 'Gas4'
      NU_SPEC = 0.279
      MATL_ID = 'WRC4'
      NU_MATL = 0.721
      CONDUCTIVITY = 0.305
      SPECIFIC_HEAT_RAMP = 'cp_WRC3'
      HEAT_OF_REACTION = -500. / 

&MATL ID='WRC4'
      A(1) = 3.67E-4
      E(1) = 5.46E3
      EMISSIVITY = 0.72
      DENSITY = 82.
      SPEC_ID = 'Gas5'
      NU_SPEC = 0.517
      MATL_ID = 'Char'
      NU_MATL = 0.483
      CONDUCTIVITY = 0.580
      SPECIFIC_HEAT_RAMP = 'cp_WRC4'
      HEAT_OF_REACTION = -3. /

&MATL ID='Char'
      EMISSIVITY = 0.70
      DENSITY = 39.
      CONDUCTIVITY = 1.20
      SPECIFIC_HEAT_RAMP = 'cp_char'/

&RAMP ID='cp_water', T= 20., F=4.181 /
&RAMP ID='cp_water', T= 40., F=4.181 /
&RAMP ID='cp_water', T= 60., F=4.189 /
&RAMP ID='cp_water', T= 80., F=4.206 /
&RAMP ID='cp_water', T= 100., F=4.232 /

&RAMP ID='cp_WRC', T= 25., F=1.042 /
&RAMP ID='cp_WRC', T=500., F=3.493 /

&RAMP ID='cp_WRC1', T= 25., F=1.044 /
&RAMP ID='cp_WRC1', T=500., F=3.049 /

&RAMP ID='cp_WRC2', T= 25., F=1.050 /
&RAMP ID='cp_WRC2', T=500., F=2.613 /

&RAMP ID='cp_WRC3', T= 25., F=1.052 /
&RAMP ID='cp_WRC3', T=500., F=2.168 /

&RAMP ID='cp_WRC4', T= 25., F=1.056 /
&RAMP ID='cp_WRC4', T=500., F=1.731 /

&RAMP ID='cp_char', T= 25., F=1.059 /
&RAMP ID='cp_char', T=700., F=1.287 /

&SURF ID = 'SAMPLE FRONT'
      ROUGHNESS = 0.002
      COLOR = 'TAN'
      MATL_ID(1,1:2) = 'WRC','water'
      MATL_MASS_FRACTION(1,1:2) = 0.926,0.074
      MATL_ID(2,1) = 'MARINITE'
      STRETCH_FACTOR(1:2) = 1.,2.
      THICKNESS = 0.021,0.0254 /

&SURF ID = 'SAMPLE BACK'
      ROUGHNESS = 0.002
      COLOR  = 'GRAY'
      MATL_ID(1,1) = 'MARINITE'
      MATL_ID(2,1:2) = 'WRC','water'
      MATL_MASS_FRACTION(2,1:2) = 0.926,0.074
      STRETCH_FACTOR(1:2) = 2.,1.
      THICKNESS = 0.0254,0.021 /

