&HEAD CHID='box_2x1x1', TITLE='Cardboard box(s) filled with crinkle paper' /

&MESH XB=-0.90,-0.30,-0.90,-0.30,0.00,0.60, IJK=12,12,12, MULT_ID='mesh' /
&MULT ID='mesh', DX=0.60, DY=0.60, DZ=0.60, I_UPPER=2, J_UPPER=1, K_UPPER=3 /

&TIME T_END=2400. /    

&INIT PART_ID='Igniter', XYZ=-0.62,-0.32,0.02, N_PARTICLES_PER_CELL=1 /
&INIT PART_ID='Igniter', XYZ= 0.62,-0.32,0.02, N_PARTICLES_PER_CELL=1 /
&INIT PART_ID='Igniter', XYZ=-0.32,-0.62,0.02, N_PARTICLES_PER_CELL=1 /
&INIT PART_ID='Igniter', XYZ=-0.32, 0.02,0.02, N_PARTICLES_PER_CELL=1 /
&INIT PART_ID='Igniter', XYZ= 0.32,-0.62,0.02, N_PARTICLES_PER_CELL=1 /
&INIT PART_ID='Igniter', XYZ= 0.32, 0.02,0.02, N_PARTICLES_PER_CELL=1 /

&OBST XB=-0.60,-0.60,-0.60, 0.00,0.00,0.45, SURF_ID='Single Cardboard' /
&OBST XB= 0.00, 0.00,-0.60, 0.00,0.00,0.45, SURF_ID='Double Cardboard' /
&OBST XB= 0.60, 0.60,-0.60, 0.00,0.00,0.45, SURF_ID='Single Cardboard' /
&OBST XB=-0.60, 0.60,-0.60,-0.60,0.00,0.45, SURF_ID='Single Cardboard' /
&OBST XB=-0.60, 0.60, 0.00, 0.00,0.00,0.45, SURF_ID='Single Cardboard' /
&OBST XB=-0.60, 0.60,-0.60, 0.00,0.45,0.45, SURF_ID='Double Cardboard' /
&OBST XB=-0.60, 0.60,-0.60, 0.00,0.00,0.00, SURF_ID='Double Cardboard' /

&INIT PART_ID='Crinkle Paper', XB=-0.60,0.60,-0.60,0.00,0.00,0.45, N_PARTICLES_PER_CELL=1, CELL_CENTERED=F, DRY=T, MASS_PER_VOLUME=37.8 /

&CATF OTHER_FILES='props.txt' /

&TAIL /
