&HEAD CHID='crib_2x2x1_8cm', TITLE='Four wood cribs' /

&MESH XB=-0.96,0.00,-0.96,0.00,0.0,1.92, IJK=12,12,24, MULT_ID='mesh' /
&MULT ID='mesh', DX=0.96, DY=0.96, DZ=1.92, I_UPPER=1, J_UPPER=1, K_UPPER=1 /

&TIME T_END=4200. /    

&INIT PART_ID='Igniter', XYZ=-0.30,-0.54,0.02, N_PARTICLES_PER_CELL=1 /
&INIT PART_ID='Igniter', XYZ=-0.30, 0.54,0.02, N_PARTICLES_PER_CELL=1 /
&INIT PART_ID='Igniter', XYZ= 0.30,-0.54,0.02, N_PARTICLES_PER_CELL=1 /
&INIT PART_ID='Igniter', XYZ= 0.30, 0.54,0.02, N_PARTICLES_PER_CELL=1 /

&INIT PART_ID='PINE CRIB PARTICLE', XB=-0.56,0.56,-0.56,0.56,0.08,0.46, N_PARTICLES_PER_CELL=1, CELL_CENTERED=T, DRY=T, MASS_PER_VOLUME=297. /

&INIT PART_ID='Crinkle Paper', XB=-0.56,0.56,-0.56,0.56,0.00,0.08, N_PARTICLES_PER_CELL=3, CELL_CENTERED=F, DRY=T, MASS_PER_VOLUME=27. /

&CATF OTHER_FILES='props.txt' /

&TAIL /
