&HEAD CHID='crib_1x1x1_2cm_obst', TITLE='Single wood crib' /

&MESH XB=-0.88,-0.58,-0.88,-0.58,0.0,0.60, IJK=15,15,30, MULT_ID='mesh' /
&MULT ID='mesh', DX=0.3, DY=0.3, DZ=0.6, I_UPPER=3, J_UPPER=3, K_UPPER=3 /

&TIME T_END=3600. /    

&INIT PART_ID='Igniter', XYZ=-0.30,-0.54,0.02, N_PARTICLES_PER_CELL=1 /
&INIT PART_ID='Igniter', XYZ=-0.30,-0.02,0.02, N_PARTICLES_PER_CELL=1 /

&OBST XB=-0.58,-0.54,-0.58, 0.00,0.08,0.12, SURF_ID='SOLID PINE', MULT_ID='m1' /
&MULT ID='m1', DX=0.06, DZ=0.08, I_UPPER=9, K_UPPER=4 /
&OBST XB=-0.58,-0.54,-0.58, 0.00,0.00,0.08, SURF_ID='SOLID PINE', MULT_ID='m2' /
&MULT ID='m2', DX=0.54, I_UPPER=1 /
&OBST XB=-0.58, 0.00,-0.58,-0.54,0.12,0.16, SURF_ID='SOLID PINE', MULT_ID='m3' /
&MULT ID='m3', DY=0.06, DZ=0.08, J_UPPER=9, K_UPPER=4 /

&INIT PART_ID='Crinkle Paper', XB=-0.54,-0.04,-0.58,0.0,0.00,0.08, N_PARTICLES_PER_CELL=3, CELL_CENTERED=F, DRY=T, MASS_PER_VOLUME=34. /

&CATF OTHER_FILES='props.fds' /

&TAIL /
