&HEAD CHID='crib_1x1x1_8cm', TITLE='Single wood crib' /

&MESH XB=-0.88,0.32,-0.88,0.32,0.0,2.40, IJK=15,15,30, MULT_ID='mesh' /
&MULT ID='mesh', DX=0.6, DY=0.6, DZ=0.6, I_UPPER=0, J_UPPER=0, K_UPPER=0 /

&TIME T_END=3600. /    

&INIT PART_ID='Igniter', XYZ=-0.30,-0.54,0.02, N_PARTICLES_PER_CELL=1 /
&INIT PART_ID='Igniter', XYZ=-0.30,-0.02,0.02, N_PARTICLES_PER_CELL=1 /

&INIT PART_ID='PINE CRIB PARTICLE', XB=-0.56,0.0,-0.56,0.0,0.08,0.46, N_PARTICLES_PER_CELL=1, CELL_CENTERED=T, DRY=T, MASS_PER_VOLUME=297. /

&INIT PART_ID='Crinkle Paper', XB=-0.56,0.0,-0.56,0.0,0.00,0.08, N_PARTICLES_PER_CELL=3, CELL_CENTERED=F, DRY=T, MASS_PER_VOLUME=27. /

&CATF OTHER_FILES='props.txt' /

&TAIL /
