&HEAD CHID='pallet_1x1x8', TITLE='NIST/NRC Multiple Transient Experiments' /

&MESH XB=-1.5,-0.5,-1.8,-0.6,0.0,1.2, IJK=16,20,20, MULT_ID='mesh' /
&MULT ID='mesh', DX=1.0, DY=1.2, DZ=1.2, I_UPPER=1, J_UPPER=1, K_UPPER=5 /

&TIME T_END=3000. /    

&INIT PART_ID='Igniter', XYZ=-0.75,-0.95,0.12, N_PARTICLES_PER_CELL=1 /
&INIT PART_ID='Igniter', XYZ=-0.25,-0.95,0.12, N_PARTICLES_PER_CELL=1 /
&INIT PART_ID='Igniter', XYZ=-0.75,-0.25,0.12, N_PARTICLES_PER_CELL=1 /
&INIT PART_ID='Igniter', XYZ=-0.25,-0.25,0.12, N_PARTICLES_PER_CELL=1 /

&INIT PART_ID='PINE PALLET PARTICLE', XB=-1.0,0.0,-1.2,0.0,0.00,0.96, N_PARTICLES_PER_CELL=1, CELL_CENTERED=T, DRY=T, MASS_PER_VOLUME=101 /

&INIT PART_ID='Crinkle Paper', XB=-1.0,0.0,-1.2,0.0,0.00,0.12, N_PARTICLES_PER_CELL=5, CELL_CENTERED=F, DRY=T, MASS_PER_VOLUME=6.3 /

&CATF OTHER_FILES='props.txt' /

&TAIL /
