&HEAD CHID='bucket_test_3', TITLE='Simple test of droplet insertion' /

&MESH IJK=20,20,20, XB=-1,1,-1,1,0,2 /

&TIME T_END=10., DT=.01 /

&VENT MB='ZMAX',SURF_ID='OPEN'/
&VENT MB='XMAX',SURF_ID='OPEN'/
&VENT MB='XMIN',SURF_ID='OPEN'/
&VENT MB='YMAX',SURF_ID='OPEN'/
&VENT MB='YMIN',SURF_ID='OPEN'/

&SPEC ID='WATER VAPOR'/

&PART ID='water drops', SPEC_ID='WATER VAPOR', DIAMETER=500., QUANTITIES(1)='PARTICLE DIAMETER', SAMPLING_FACTOR=1 /

&DEVC XYZ=0,0,0, ID='active05', QUANTITY='TIME', SETPOINT=8., INITIAL_STATE=.TRUE. /

&DEVC ID='Mass', QUANTITY='AMPUA', PART_ID='water drops', SPATIAL_STATISTIC='SURFACE INTEGRAL', XB=-1,1,-1,1,0.0,0.0 /

&INIT N_PARTICLES=1, XYZ=0.0,0.0,1.0, UVW= 1.0, 1.0,0.0, DIAMETER= 900., MASS_PER_TIME=1.0E-04, DT_INSERT=0.02, PART_ID='water drops', DEVC_ID='active05' /
&INIT N_PARTICLES=2, XYZ=0.0,0.0,1.0, UVW=-1.0, 1.0,0.0, DIAMETER=1000., MASS_PER_TIME=2.0E-04, DT_INSERT=0.04, PART_ID='water drops', DEVC_ID='active05' /
&INIT N_PARTICLES=4, XYZ=0.0,0.0,1.0, UVW=-1.0,-1.0,0.0, DIAMETER=1100., MASS_PER_TIME=3.0E-04, DT_INSERT=0.06, PART_ID='water drops', DEVC_ID='active05' /
&INIT N_PARTICLES=6, XYZ=0.0,0.0,1.0, UVW= 1.0,-1.0,0.0, DIAMETER=1200., MASS_PER_TIME=4.0E-04, DT_INSERT=0.08, PART_ID='water drops', DEVC_ID='active05' /

&TAIL /
