&HEAD CHID='smooth_test',TITLE='Plume case' /

 simple plume calculation to demonstrate basic Smokeview functions

&MESH IJK=16,16,32, XB=0.0,1.6,0.0,1.6,0.0,3.2 /

&TIME TWFIN=10. /  Total simulation time

&DUMP NFRAMES=200 /

&OBST XB=0.5,1.1,0.5,1.1,0.0,1.1,SAWTOOTH=.FALSE.,TRANSPARENCY=0.5,RGB=128,255,32 /

&SURF ID='BLOW 5', VEL=-0.2, COLOR='PURPLE',  PART_ID='TRACER 5' /

&VENT XB=0.0,0.0,0.0,1.6,0.0,3.2,SURF_ID='OPEN'/
&VENT XB=1.6,1.6,0.0,1.6,0.0,3.2,SURF_ID='OPEN'/
&VENT XB=0.0,1.6,1.6,1.6,0.0,3.2,SURF_ID='OPEN'/
&VENT XB=0.0,1.6,0.0,0.0,0.0,3.2,SURF_ID='BLOW 5', DEVC_ID='timer 5'/

&DEVC XYZ=0.1,0.1,0.1, ID='timer 5', QUANTITY='TIME', SETPOINT= 5.0  /