&HEAD CHID='smooth_test2', TITLE='Single Couch Test Case'  /

&TIME TWFIN=10. /  Total simulation time

&MESH IJK=50,50,50, XB=0.0,5.0,0.0,5.0,0.0,5.0 / 
&SURF ID='Transparent1', RGB=255,50,255, TRANSPARENCY=0.5 / 
&SURF ID='Transparent2', RGB=0,50,255, TRANSPARENCY=0.5 / 
&OBST XB= 2.8, 3.8, 3.5, 4.5, 0.2, 0.6, SURF_ID='Transparent1', SAWTOOTH=.FALSE. / 
&OBST XB= 3.8, 4.8, 3.0, 4.0, 0.2, 0.6, SURF_ID='Transparent2', SAWTOOTH=.FALSE. / 
&OBST XB= 1.0, 2.0, 1.0, 2.0, 0.2, 0.6, RGB=0,255,0 / 

&VENT XB=0.0,0.0,0.0,1.0,0.0,1.0,SURF_ID='OPEN' /
&VENT XB=0.0,5.0,0.0,0.0,0.0,2.0,SURF_ID='BLOW 5', DEVC_ID='timer 5'/
&SURF ID='BLOW 5', VEL=-0.2, COLOR='PURPLE',  PART_ID='TRACER 5' /
&DEVC XYZ=0.1,0.1,0.1, ID='timer 5', QUANTITY='TIME', SETPOINT= 5.0  /
&TAIL /

