&HEAD CHID='test_azim' /

&MESH XB=-1.0,1.0,-1.0,1.0,-1.0,1.0 /
&GRID IBAR=10,JBAR=10,KBAR=10 /

&SURF ID='surf1',RGB=255,0,0 /
&SURF ID='surf2',RGB=0,255,0 /
&SURF ID='surf3',RGB=0,0,255 /

***AZIMUTHAL TEST

&GEOM ID='geom1',
        VERTS=-2.0,0.0,0.0,
              -2.0,1.0,0.0,
              -2.0,1.0,1.0,FACES=1,2,3,XYZ0=-2.0,0.0,0.0,AZIM=0.0,ELEV=0,SURF_ID='surf1'/


&OBST XB=0.2,0.5,0.2,0.5,0.2,0.5, SURF_ID='surf2' /