&HEAD CHID='test_component' /

&MESH IBAR=10,JBAR=10,KBAR=10,XB=-1.0,1.0,-1.0,1.0,-1.0,1.0 /

&SURF ID='surf1',RGB=255,0,0 /
&SURF ID='surf2',RGB=0,255,0 /
&SURF ID='surf3',RGB=0,0,255 /

***ELEVATION TEST

&GEOM ID='geom1',
        VERTS=-2.0,0.0,0.0,
              -1.0,0.0,0.0,
              -1.0,0.0,1.0,
        FACES=1,2,3,
        SURF_ID='surf1'/

&GEOM ID='geom2',
        VERTS=-2.0,0.0,0.0,
              -1.0,0.0,0.0,
              -1.0,0.0,1.0,
        FACES=1,2,3,
        XYZ=2.0,0.0,0.0,
        SURF_ID='surf2'
        COMPONENT_ONLY=.TRUE.
        /

&GEOM ID='geom3',
        VERTS=-2.0,0.0,0.0,
              -1.0,0.0,0.0,
              -1.0,0.0,1.0,
        FACES=1,2,3,
        XYZ=4.0,0.0,0.0,
        SURF_ID='surf3'/
