&HEAD CHID='test_time4' /

&TIME T_END=0.0, T_END_GEOM=1000.0 /
&MESH IJK=10,10,10,XB=-1.0,1.0,-1.0,1.0,-1.0,1.0 /

&SURF ID='surf1',RGB=255,0,0 /
&SURF ID='surf2',RGB=0,255,0 /
&SURF ID='surf3',RGB=0,0,255 /
&SURF ID='surf4',RGB=0,0,0 /

&GEOM ID='blade',AZIM=0.0,AZIM_DOT=0.72
        VERTS=0.0,0.0,0.0,
              1.0,0.0,0.0,
              1.0,0.0,1.0,
        FACES=1,2,3,
        COMPONENT_ONLY=.TRUE.,SURF_ID='surf4'/

&GEOM ID='blade1',GEOM_IDS(1)='blade',SURF_ID='surf1',COMPONENT_ONLY=.TRUE. /
&GEOM ID='blade2',GEOM_IDS(1)='blade',SURF_ID='surf2',COMPONENT_ONLY=.TRUE. /
&GEOM ID='blade3',GEOM_IDS(1)='blade',SURF_ID='surf3',COMPONENT_ONLY=.TRUE. /

&GEOM ID='prop' GEOM_IDS(1)='blade1',DAZIM(1)=0.0,
                GEOM_IDS(2)='blade2',DAZIM(2)=90.0,
                GEOM_IDS(3)='blade1',DAZIM(3)=180.0,
                GEOM_IDS(4)='blade3',DAZIM(4)=270.0,
ELEV=45.0,AZIM=45.0
                /
&GEOM ID='prop2' GEOM_IDS(1)='blade1',DAZIM(1)=0.0,
                GEOM_IDS(2)='blade2',DAZIM(2)=90.0,
                GEOM_IDS(3)='blade1',DAZIM(3)=180.0,
                GEOM_IDS(4)='blade3',DAZIM(4)=270.0,
ELEV=135.0,AZIM=45.0 
/


