&HEAD CHID='test_time' /

&TIME T_END=1000.0 /
&MESH IBAR=10,JBAR=10,KBAR=10,XB=-1.0,1.0,-1.0,1.0,-1.0,1.0 /

&SURF ID='surf1',RGB=255,0,0 /
&SURF ID='surf2',RGB=0,255,0 /
&SURF ID='surf3',RGB=0,0,255 /

***AZIMUTHAL TEST

&GEOM ID='geom4',
        VERTS=0.0,0.0,0.0,
              0.0,1.0,0.0,
              0.0,1.0,1.0,FACES=1,2,3,AZIM=0.0,AZIM_DOT=0.36,SURF_ID='surf1'/


