&HEAD CHID='test' /

&MESH XB=-1.0,1.0,-1.0,1.0,-1.0,1.0 /
&GRID IBAR=10,JBAR=10,KBAR=10 /
&GEOM ID='geom1',
        VERTS=0.0,0.0,0.0,
              1.0,0.0,0.0,
              1.0,1.0,0.0,FACES=1,2,3,AZIM=0.0,ELEV=0/
&GEOM ID='geom2',
        VERTS=0.0,0.0,0.0,
              1.0,0.0,0.0,
              1.0,1.0,0.0,FACES=1,2,3,AZIM=0.0,ELEV=45/
&GEOM ID='geom3',
        VERTS=0.0,0.0,0.0,
              0.0,1.0,0.0,
              0.0,1.0,1.0,FACES=1,2,3,AZIM=0.0,ELEV=0/
&GEOM ID='geom4',
        VERTS=0.0,0.0,0.0,
              0.0,1.0,0.0,
              0.0,1.0,1.0,FACES=1,2,3,AZIM=45.0,ELEV=0/
&GEOM ID='geom5',
        VERTS=1.0,0.0,0.0,
              1.0,1.0,0.0,
              1.0,1.0,1.0,FACES=1,2,3,XYZ=0.0,0.0,0.0/
&GEOM ID='geom6',
        VERTS=1.0,0.0,0.0,
              1.0,1.0,0.0,
              1.0,1.0,1.0,FACES=1,2,3,XYZ=0.0,0.0,-1.0/
