&HEAD CHID='test_group3' /
*** define group of groups

&MESH IBAR=10,JBAR=10,KBAR=10,XB=-1.0,1.0,-1.0,1.0,-1.0,1.0 /

&SURF ID='surf1',RGB=255,0,0 /
&SURF ID='surf2',RGB=0,255,0 /
&SURF ID='surf3',RGB=0,0,255 /
&SURF ID='surf4',RGB=255,0,255 /

***GROUP TEST

&GEOM ID='geom1',
        VERTS=-2.0,0.0,0.0,
              -1.0,0.0,0.0,
              -1.0,0.0,1.0,
              -2.0,0.0,1.0,
              FACES=1,2,3,1,3,4,
              AZIM=0.0,ELEV=0,SURF_ID='surf1',
              COMPONENT_ONLY=.TRUE.
/

&GEOM ID='group1',
    GEOM_IDS(1)='geom1',DXYZ(1,1)=0.0,0.0,0.0, 
    GEOM_IDS(2)='geom1',DXYZ(1,2)=0.0,0.0,1.2, 
    COMPONENT_ONLY=.TRUE.
/

&GEOM ID='group2',
    GEOM_IDS(1)='group1',DXYZ(1,1)=0.0,0.0,0.0, 
    GEOM_IDS(2)='group1',DXYZ(1,2)=2.0,0.0,0.0, 
    SURF_ID='surf3'
/
