&HEAD CHID='test_azim2' /

&TIME T_END=1000.0 /
&MESH XB=-1.0,1.0,-1.0,1.0,-1.0,1.0 /
&GRID IBAR=10,JBAR=10,KBAR=10 /

&SURF ID='surf1',RGB=255,0,0 /
&SURF ID='surf2',RGB=0,255,0 /
&SURF ID='surf3',RGB=0,0,255 /

***AZIMUTHAL TEST

&GEOM ID='geom4',
        VERTS=-2.0,0.0,0.0,
              -2.0,1.0,0.0,
              -2.0,1.0,1.0,FACES=1,2,3,XYZ0=-2.0,0.0,0.0,AZIM=0.0,AZIM_DOT=0.1,SURF_ID='surf1'/


