&HEAD CHID='test_sphere' /

&TIME T_END=0.0/
&MESH IJK=10,10,10,XB=-1.0,1.0,-1.0,1.0,-1.0,1.0 /

&SURF ID='surf1',RGB=255,0,0 /
&SURF ID='surf2',RGB=0,255,0 /
&SURF ID='surf3',RGB=0,0,255 /

&GEOM ID='sphere',SURF_ID='surf1',VERTS=
0,0,1 ,
0,0,1 ,
0,0,1 ,
0,0,1 ,
0,0,1 ,
0,0,1 ,
0,0,1 ,
0,0,1 ,
0,0,1 ,
0,0,1 ,
0,0,1 ,
0,0,1 ,
0,0,1 ,
0,0,1 ,
0,0,1 ,
0,0,1 ,
0,0,1 ,
0,0,1 ,
0,0,1 ,
0,0,1 ,
0,0,1 ,
0,0,1 ,
0,0,1 ,
0,0,1 ,
0,0,1 ,
0,0,1 ,
0,0,1 ,
0,0,1 ,
0,0,1 ,
0,0,1 ,
0,0,1 ,
0,0,1 ,
0.10117,0,0.99487 ,
0.099097,0.020365,0.99487 ,
0.092969,0.039896,0.99487 ,
0.083035,0.057794,0.99487 ,
0.069702,0.073326,0.99487 ,
0.053514,0.085856,0.99487 ,
0.035136,0.094871,0.99487 ,
0.01532,0.1,0.99487 ,
-0.0051241,0.10104,0.99487 ,
-0.025358,0.097939,0.99487 ,
-0.044554,0.090829,0.99487 ,
-0.061926,0.080001,0.99487 ,
-0.076762,0.065898,0.99487 ,
-0.088456,0.049097,0.99487 ,
-0.096529,0.030286,0.99487 ,
-0.10065,0.010235,0.99487 ,
-0.10065,-0.010235,0.99487 ,
-0.096529,-0.030286,0.99487 ,
-0.088456,-0.049097,0.99487 ,
-0.076762,-0.065898,0.99487 ,
-0.061926,-0.080001,0.99487 ,
-0.044554,-0.090829,0.99487 ,
-0.025358,-0.097939,0.99487 ,
-0.0051241,-0.10104,0.99487 ,
0.01532,-0.1,0.99487 ,
0.035136,-0.094871,0.99487 ,
0.053514,-0.085856,0.99487 ,
0.069702,-0.073326,0.99487 ,
0.083035,-0.057794,0.99487 ,
0.092969,-0.039896,0.99487 ,
0.099097,-0.020365,0.99487 ,
0.10117,-2.4779e-17,0.99487 ,
0.2013,0,0.97953 ,
0.19718,0.040521,0.97953 ,
0.18498,0.079383,0.97953 ,
0.16522,0.115,0.97953 ,
0.13869,0.1459,0.97953 ,
0.10648,0.17083,0.97953 ,
0.069912,0.18877,0.97953 ,
0.030482,0.19898,0.97953 ,
-0.010196,0.20104,0.97953 ,
-0.050456,0.19487,0.97953 ,
-0.088651,0.18073,0.97953 ,
-0.12322,0.15918,0.97953 ,
-0.15274,0.13112,0.97953 ,
-0.176,0.097691,0.97953 ,
-0.19207,0.060261,0.97953 ,
-0.20027,0.020365,0.97953 ,
-0.20027,-0.020365,0.97953 ,
-0.19207,-0.060261,0.97953 ,
-0.176,-0.097691,0.97953 ,
-0.15274,-0.13112,0.97953 ,
-0.12322,-0.15918,0.97953 ,
-0.088651,-0.18073,0.97953 ,
-0.050456,-0.19487,0.97953 ,
-0.010196,-0.20104,0.97953 ,
0.030482,-0.19898,0.97953 ,
0.069912,-0.18877,0.97953 ,
0.10648,-0.17083,0.97953 ,
0.13869,-0.1459,0.97953 ,
0.16522,-0.115,0.97953 ,
0.18498,-0.079383,0.97953 ,
0.19718,-0.040521,0.97953 ,
0.2013,-4.9304e-17,0.97953 ,
0.29936,0,0.95414 ,
0.29324,0.060261,0.95414 ,
0.2751,0.11806,0.95414 ,
0.24571,0.17102,0.95414 ,
0.20625,0.21698,0.95414 ,
0.15835,0.25405,0.95414 ,
0.10397,0.28073,0.95414 ,
0.045332,0.29591,0.95414 ,
-0.015162,0.29898,0.95414 ,
-0.075036,0.28981,0.95414 ,
-0.13184,0.26877,0.95414 ,
-0.18324,0.23673,0.95414 ,
-0.22714,0.195,0.95414 ,
-0.26175,0.14528,0.95414 ,
-0.28563,0.089618,0.95414 ,
-0.29783,0.030286,0.95414 ,
-0.29783,-0.030286,0.95414 ,
-0.28563,-0.089618,0.95414 ,
-0.26175,-0.14528,0.95414 ,
-0.22714,-0.195,0.95414 ,
-0.18324,-0.23673,0.95414 ,
-0.13184,-0.26877,0.95414 ,
-0.075036,-0.28981,0.95414 ,
-0.015162,-0.29898,0.95414 ,
0.045332,-0.29591,0.95414 ,
0.10397,-0.28073,0.95414 ,
0.15835,-0.25405,0.95414 ,
0.20625,-0.21698,0.95414 ,
0.24571,-0.17102,0.95414 ,
0.2751,-0.11806,0.95414 ,
0.29324,-0.060261,0.95414 ,
0.29936,-7.3323e-17,0.95414 ,
0.39436,0,0.91896 ,
0.38628,0.079383,0.91896 ,
0.3624,0.15552,0.91896 ,
0.32367,0.22528,0.91896 ,
0.2717,0.28583,0.91896 ,
0.2086,0.33467,0.91896 ,
0.13696,0.36981,0.91896 ,
0.059716,0.38981,0.91896 ,
-0.019974,0.39385,0.91896 ,
-0.098846,0.38177,0.91896 ,
-0.17367,0.35405,0.91896 ,
-0.24139,0.31185,0.91896 ,
-0.29922,0.25687,0.91896 ,
-0.3448,0.19138,0.91896 ,
-0.37627,0.11806,0.91896 ,
-0.39233,0.039896,0.91896 ,
-0.39233,-0.039896,0.91896 ,
-0.37627,-0.11806,0.91896 ,
-0.3448,-0.19138,0.91896 ,
-0.29922,-0.25687,0.91896 ,
-0.24139,-0.31185,0.91896 ,
-0.17367,-0.35405,0.91896 ,
-0.098846,-0.38177,0.91896 ,
-0.019974,-0.39385,0.91896 ,
0.059716,-0.38981,0.91896 ,
0.13696,-0.36981,0.91896 ,
0.2086,-0.33467,0.91896 ,
0.2717,-0.28583,0.91896 ,
0.32367,-0.22528,0.91896 ,
0.3624,-0.15552,0.91896 ,
0.38628,-0.079383,0.91896 ,
0.39436,-9.6589e-17,0.91896 ,
0.4853,0,0.87435 ,
0.47537,0.097691,0.87435 ,
0.44597,0.19138,0.87435 ,
0.39832,0.27724,0.87435 ,
0.33436,0.35174,0.87435 ,
0.25671,0.41185,0.87435 ,
0.16855,0.45509,0.87435 ,
0.073488,0.47971,0.87435 ,
-0.02458,0.48468,0.87435 ,
-0.12164,0.46981,0.87435 ,
-0.21372,0.43571,0.87435 ,
-0.29706,0.38377,0.87435 ,
-0.36823,0.31611,0.87435 ,
-0.42432,0.23552,0.87435 ,
-0.46305,0.14528,0.87435 ,
-0.48281,0.049097,0.87435 ,
-0.48281,-0.049097,0.87435 ,
-0.46305,-0.14528,0.87435 ,
-0.42432,-0.23552,0.87435 ,
-0.36823,-0.31611,0.87435 ,
-0.29706,-0.38377,0.87435 ,
-0.21372,-0.43571,0.87435 ,
-0.12164,-0.46981,0.87435 ,
-0.02458,-0.48468,0.87435 ,
0.073488,-0.47971,0.87435 ,
0.16855,-0.45509,0.87435 ,
0.25671,-0.41185,0.87435 ,
0.33436,-0.35174,0.87435 ,
0.39832,-0.27724,0.87435 ,
0.44597,-0.19138,0.87435 ,
0.47537,-0.097691,0.87435 ,
0.4853,-1.1886e-16,0.87435 ,
0.57127,0,0.82076 ,
0.55957,0.115,0.82076 ,
0.52497,0.22528,0.82076 ,
0.46888,0.32635,0.82076 ,
0.39358,0.41405,0.82076 ,
0.30218,0.4848,0.82076 ,
0.1984,0.53571,0.82076 ,
0.086506,0.56468,0.82076 ,
-0.028934,0.57053,0.82076 ,
-0.14319,0.55303,0.82076 ,
-0.25158,0.51289,0.82076 ,
-0.34968,0.45175,0.82076 ,
-0.43345,0.37211,0.82076 ,
-0.49949,0.27724,0.82076 ,
-0.54507,0.17102,0.82076 ,
-0.56834,0.057794,0.82076 ,
-0.56834,-0.057794,0.82076 ,
-0.54507,-0.17102,0.82076 ,
-0.49949,-0.27724,0.82076 ,
-0.43345,-0.37211,0.82076 ,
-0.34968,-0.45175,0.82076 ,
-0.25158,-0.51289,0.82076 ,
-0.14319,-0.55303,0.82076 ,
-0.028934,-0.57053,0.82076 ,
0.086506,-0.56468,0.82076 ,
0.1984,-0.53571,0.82076 ,
0.30218,-0.4848,0.82076 ,
0.39358,-0.41405,0.82076 ,
0.46888,-0.32635,0.82076 ,
0.52497,-0.22528,0.82076 ,
0.55957,-0.115,0.82076 ,
0.57127,-1.3992e-16,0.82076 ,
0.65137,0,0.75876 ,
0.63804,0.13112,0.75876 ,
0.59858,0.25687,0.75876 ,
0.53462,0.37211,0.75876 ,
0.44877,0.47211,0.75876 ,
0.34455,0.55278,0.75876 ,
0.22623,0.61083,0.75876 ,
0.098636,0.64386,0.75876 ,
-0.032991,0.65054,0.75876 ,
-0.16327,0.63058,0.75876 ,
-0.28686,0.58481,0.75876 ,
-0.39871,0.51509,0.75876 ,
-0.49423,0.42429,0.75876 ,
-0.56953,0.31611,0.75876 ,
-0.6215,0.195,0.75876 ,
-0.64803,0.065898,0.75876 ,
-0.64803,-0.065898,0.75876 ,
-0.6215,-0.195,0.75876 ,
-0.56953,-0.31611,0.75876 ,
-0.49423,-0.42429,0.75876 ,
-0.39871,-0.51509,0.75876 ,
-0.28686,-0.58481,0.75876 ,
-0.16327,-0.63058,0.75876 ,
-0.032991,-0.65054,0.75876 ,
0.098636,-0.64386,0.75876 ,
0.22623,-0.61083,0.75876 ,
0.34455,-0.55278,0.75876 ,
0.44877,-0.47211,0.75876 ,
0.53462,-0.37211,0.75876 ,
0.59858,-0.25687,0.75876 ,
0.63804,-0.13112,0.75876 ,
0.65137,-1.5954e-16,0.75876 ,
0.72479,0,0.68897 ,
0.70996,0.1459,0.68897 ,
0.66605,0.28583,0.68897 ,
0.59488,0.41405,0.68897 ,
0.49936,0.52532,0.68897 ,
0.38339,0.61509,0.68897 ,
0.25172,0.67968,0.68897 ,
0.10975,0.71643,0.68897 ,
-0.03671,0.72386,0.68897 ,
-0.18167,0.70166,0.68897 ,
-0.31919,0.65072,0.68897 ,
-0.44365,0.57315,0.68897 ,
-0.54994,0.47211,0.68897 ,
-0.63372,0.35174,0.68897 ,
-0.69155,0.21698,0.68897 ,
-0.72107,0.073326,0.68897 ,
-0.72107,-0.073326,0.68897 ,
-0.69155,-0.21698,0.68897 ,
-0.63372,-0.35174,0.68897 ,
-0.54994,-0.47211,0.68897 ,
-0.44365,-0.57315,0.68897 ,
-0.31919,-0.65072,0.68897 ,
-0.18167,-0.70166,0.68897 ,
-0.03671,-0.72386,0.68897 ,
0.10975,-0.71643,0.68897 ,
0.25172,-0.67968,0.68897 ,
0.38339,-0.61509,0.68897 ,
0.49936,-0.52532,0.68897 ,
0.59488,-0.41405,0.68897 ,
0.66605,-0.28583,0.68897 ,
0.70996,-0.1459,0.68897 ,
0.72479,-1.7752e-16,0.68897 ,
0.79078,0,0.61211 ,
0.77459,0.15918,0.61211 ,
0.72669,0.31185,0.61211 ,
0.64904,0.45175,0.61211 ,
0.54482,0.57315,0.61211 ,
0.41829,0.67109,0.61211 ,
0.27464,0.74155,0.61211 ,
0.11975,0.78166,0.61211 ,
-0.040052,0.78976,0.61211 ,
-0.19821,0.76553,0.61211 ,
-0.34825,0.70996,0.61211 ,
-0.48404,0.62533,0.61211 ,
-0.60001,0.51509,0.61211 ,
-0.69141,0.38377,0.61211 ,
-0.75451,0.23673,0.61211 ,
-0.78672,0.080001,0.61211 ,
-0.78672,-0.080001,0.61211 ,
-0.75451,-0.23673,0.61211 ,
-0.69141,-0.38377,0.61211 ,
-0.60001,-0.51509,0.61211 ,
-0.48404,-0.62533,0.61211 ,
-0.34825,-0.70996,0.61211 ,
-0.19821,-0.76553,0.61211 ,
-0.040052,-0.78976,0.61211 ,
0.11975,-0.78166,0.61211 ,
0.27464,-0.74155,0.61211 ,
0.41829,-0.67109,0.61211 ,
0.54482,-0.57315,0.61211 ,
0.64904,-0.45175,0.61211 ,
0.72669,-0.31185,0.61211 ,
0.77459,-0.15918,0.61211 ,
0.79078,-1.9368e-16,0.61211 ,
0.84864,0,0.52896 ,
0.83127,0.17083,0.52896 ,
0.77987,0.33467,0.52896 ,
0.69654,0.4848,0.52896 ,
0.58469,0.61509,0.52896 ,
0.4489,0.7202,0.52896 ,
0.29474,0.79582,0.52896 ,
0.12851,0.83886,0.52896 ,
-0.042983,0.84756,0.52896 ,
-0.21271,0.82155,0.52896 ,
-0.37374,0.76192,0.52896 ,
-0.51946,0.67109,0.52896 ,
-0.64392,0.55278,0.52896 ,
-0.74201,0.41185,0.52896 ,
-0.80972,0.25405,0.52896 ,
-0.84429,0.085856,0.52896 ,
-0.84429,-0.085856,0.52896 ,
-0.80972,-0.25405,0.52896 ,
-0.74201,-0.41185,0.52896 ,
-0.64392,-0.55278,0.52896 ,
-0.51946,-0.67109,0.52896 ,
-0.37374,-0.76192,0.52896 ,
-0.21271,-0.82155,0.52896 ,
-0.042983,-0.84756,0.52896 ,
0.12851,-0.83886,0.52896 ,
0.29474,-0.79582,0.52896 ,
0.4489,-0.7202,0.52896 ,
0.58469,-0.61509,0.52896 ,
0.69654,-0.4848,0.52896 ,
0.77987,-0.33467,0.52896 ,
0.83127,-0.17083,0.52896 ,
0.84864,-2.0786e-16,0.52896 ,
0.8978,0,0.44039 ,
0.87943,0.18073,0.44039 ,
0.82504,0.35405,0.44039 ,
0.73689,0.51289,0.44039 ,
0.61856,0.65072,0.44039 ,
0.47491,0.76192,0.44039 ,
0.31181,0.84192,0.44039 ,
0.13595,0.88745,0.44039 ,
-0.045473,0.89665,0.44039 ,
-0.22504,0.86914,0.44039 ,
-0.39539,0.80605,0.44039 ,
-0.54955,0.70996,0.44039 ,
-0.68122,0.58481,0.44039 ,
-0.78499,0.43571,0.44039 ,
-0.85663,0.26877,0.44039 ,
-0.8932,0.090829,0.44039 ,
-0.8932,-0.090829,0.44039 ,
-0.85663,-0.26877,0.44039 ,
-0.78499,-0.43571,0.44039 ,
-0.68122,-0.58481,0.44039 ,
-0.54955,-0.70996,0.44039 ,
-0.39539,-0.80605,0.44039 ,
-0.22504,-0.86914,0.44039 ,
-0.045473,-0.89665,0.44039 ,
0.13595,-0.88745,0.44039 ,
0.31181,-0.84192,0.44039 ,
0.47491,-0.76192,0.44039 ,
0.61856,-0.65072,0.44039 ,
0.73689,-0.51289,0.44039 ,
0.82504,-0.35405,0.44039 ,
0.87943,-0.18073,0.44039 ,
0.8978,-2.199e-16,0.44039 ,
0.93775,0,0.34731 ,
0.91856,0.18877,0.34731 ,
0.86175,0.36981,0.34731 ,
0.76967,0.53571,0.34731 ,
0.64608,0.67968,0.34731 ,
0.49604,0.79582,0.34731 ,
0.32569,0.87938,0.34731 ,
0.142,0.92694,0.34731 ,
-0.047496,0.93655,0.34731 ,
-0.23505,0.90782,0.34731 ,
-0.41298,0.84192,0.34731 ,
-0.574,0.74155,0.34731 ,
-0.71153,0.61083,0.34731 ,
-0.81992,0.45509,0.34731 ,
-0.89475,0.28073,0.34731 ,
-0.93294,0.094871,0.34731 ,
-0.93294,-0.094871,0.34731 ,
-0.89475,-0.28073,0.34731 ,
-0.81992,-0.45509,0.34731 ,
-0.71153,-0.61083,0.34731 ,
-0.574,-0.74155,0.34731 ,
-0.41298,-0.84192,0.34731 ,
-0.23505,-0.90782,0.34731 ,
-0.047496,-0.93655,0.34731 ,
0.142,-0.92694,0.34731 ,
0.32569,-0.87938,0.34731 ,
0.49604,-0.79582,0.34731 ,
0.64608,-0.67968,0.34731 ,
0.76967,-0.53571,0.34731 ,
0.86175,-0.36981,0.34731 ,
0.91856,-0.18877,0.34731 ,
0.93775,-2.2968e-16,0.34731 ,
0.96808,0,0.25065 ,
0.94826,0.19487,0.25065 ,
0.88962,0.38177,0.25065 ,
0.79456,0.55303,0.25065 ,
0.66697,0.70166,0.25065 ,
0.51208,0.82155,0.25065 ,
0.33622,0.90782,0.25065 ,
0.14659,0.95691,0.25065 ,
-0.049032,0.96683,0.25065 ,
-0.24265,0.93717,0.25065 ,
-0.42634,0.86914,0.25065 ,
-0.59257,0.76553,0.25065 ,
-0.73454,0.63058,0.25065 ,
-0.84643,0.46981,0.25065 ,
-0.92368,0.28981,0.25065 ,
-0.96311,0.097939,0.25065 ,
-0.96311,-0.097939,0.25065 ,
-0.92368,-0.28981,0.25065 ,
-0.84643,-0.46981,0.25065 ,
-0.73454,-0.63058,0.25065 ,
-0.59257,-0.76553,0.25065 ,
-0.42634,-0.86914,0.25065 ,
-0.24265,-0.93717,0.25065 ,
-0.049032,-0.96683,0.25065 ,
0.14659,-0.95691,0.25065 ,
0.33622,-0.90782,0.25065 ,
0.51208,-0.82155,0.25065 ,
0.66697,-0.70166,0.25065 ,
0.79456,-0.55303,0.25065 ,
0.88962,-0.38177,0.25065 ,
0.94826,-0.19487,0.25065 ,
0.96808,-2.3711e-16,0.25065 ,
0.98847,0,0.15143 ,
0.96823,0.19898,0.15143 ,
0.90836,0.38981,0.15143 ,
0.8113,0.56468,0.15143 ,
0.68102,0.71643,0.15143 ,
0.52286,0.83886,0.15143 ,
0.3433,0.92694,0.15143 ,
0.14968,0.97707,0.15143 ,
-0.050065,0.9872,0.15143 ,
-0.24776,0.95691,0.15143 ,
-0.43532,0.88745,0.15143 ,
-0.60505,0.78166,0.15143 ,
-0.75001,0.64386,0.15143 ,
-0.86426,0.47971,0.15143 ,
-0.94314,0.29591,0.15143 ,
-0.9834,0.1,0.15143 ,
-0.9834,-0.1,0.15143 ,
-0.94314,-0.29591,0.15143 ,
-0.86426,-0.47971,0.15143 ,
-0.75001,-0.64386,0.15143 ,
-0.60505,-0.78166,0.15143 ,
-0.43532,-0.88745,0.15143 ,
-0.24776,-0.95691,0.15143 ,
-0.050065,-0.9872,0.15143 ,
0.14968,-0.97707,0.15143 ,
0.3433,-0.92694,0.15143 ,
0.52286,-0.83886,0.15143 ,
0.68102,-0.71643,0.15143 ,
0.8113,-0.56468,0.15143 ,
0.90836,-0.38981,0.15143 ,
0.96823,-0.19898,0.15143 ,
0.98847,-2.421e-16,0.15143 ,
0.99872,0,0.050649 ,
0.97827,0.20104,0.050649 ,
0.91778,0.39385,0.050649 ,
0.81971,0.57053,0.050649 ,
0.68808,0.72386,0.050649 ,
0.52829,0.84756,0.050649 ,
0.34686,0.93655,0.050649 ,
0.15123,0.9872,0.050649 ,
-0.050584,0.99743,0.050649 ,
-0.25033,0.96683,0.050649 ,
-0.43983,0.89665,0.050649 ,
-0.61132,0.78976,0.050649 ,
-0.75778,0.65054,0.050649 ,
-0.87322,0.48468,0.050649 ,
-0.95291,0.29898,0.050649 ,
-0.99359,0.10104,0.050649 ,
-0.99359,-0.10104,0.050649 ,
-0.95291,-0.29898,0.050649 ,
-0.87322,-0.48468,0.050649 ,
-0.75778,-0.65054,0.050649 ,
-0.61132,-0.78976,0.050649 ,
-0.43983,-0.89665,0.050649 ,
-0.25033,-0.96683,0.050649 ,
-0.050584,-0.99743,0.050649 ,
0.15123,-0.9872,0.050649 ,
0.34686,-0.93655,0.050649 ,
0.52829,-0.84756,0.050649 ,
0.68808,-0.72386,0.050649 ,
0.81971,-0.57053,0.050649 ,
0.91778,-0.39385,0.050649 ,
0.97827,-0.20104,0.050649 ,
0.99872,-2.4461e-16,0.050649 ,
0.99872,0,-0.050649 ,
0.97827,0.20104,-0.050649 ,
0.91778,0.39385,-0.050649 ,
0.81971,0.57053,-0.050649 ,
0.68808,0.72386,-0.050649 ,
0.52829,0.84756,-0.050649 ,
0.34686,0.93655,-0.050649 ,
0.15123,0.9872,-0.050649 ,
-0.050584,0.99743,-0.050649 ,
-0.25033,0.96683,-0.050649 ,
-0.43983,0.89665,-0.050649 ,
-0.61132,0.78976,-0.050649 ,
-0.75778,0.65054,-0.050649 ,
-0.87322,0.48468,-0.050649 ,
-0.95291,0.29898,-0.050649 ,
-0.99359,0.10104,-0.050649 ,
-0.99359,-0.10104,-0.050649 ,
-0.95291,-0.29898,-0.050649 ,
-0.87322,-0.48468,-0.050649 ,
-0.75778,-0.65054,-0.050649 ,
-0.61132,-0.78976,-0.050649 ,
-0.43983,-0.89665,-0.050649 ,
-0.25033,-0.96683,-0.050649 ,
-0.050584,-0.99743,-0.050649 ,
0.15123,-0.9872,-0.050649 ,
0.34686,-0.93655,-0.050649 ,
0.52829,-0.84756,-0.050649 ,
0.68808,-0.72386,-0.050649 ,
0.81971,-0.57053,-0.050649 ,
0.91778,-0.39385,-0.050649 ,
0.97827,-0.20104,-0.050649 ,
0.99872,-2.4461e-16,-0.050649 ,
0.98847,0,-0.15143 ,
0.96823,0.19898,-0.15143 ,
0.90836,0.38981,-0.15143 ,
0.8113,0.56468,-0.15143 ,
0.68102,0.71643,-0.15143 ,
0.52286,0.83886,-0.15143 ,
0.3433,0.92694,-0.15143 ,
0.14968,0.97707,-0.15143 ,
-0.050065,0.9872,-0.15143 ,
-0.24776,0.95691,-0.15143 ,
-0.43532,0.88745,-0.15143 ,
-0.60505,0.78166,-0.15143 ,
-0.75001,0.64386,-0.15143 ,
-0.86426,0.47971,-0.15143 ,
-0.94314,0.29591,-0.15143 ,
-0.9834,0.1,-0.15143 ,
-0.9834,-0.1,-0.15143 ,
-0.94314,-0.29591,-0.15143 ,
-0.86426,-0.47971,-0.15143 ,
-0.75001,-0.64386,-0.15143 ,
-0.60505,-0.78166,-0.15143 ,
-0.43532,-0.88745,-0.15143 ,
-0.24776,-0.95691,-0.15143 ,
-0.050065,-0.9872,-0.15143 ,
0.14968,-0.97707,-0.15143 ,
0.3433,-0.92694,-0.15143 ,
0.52286,-0.83886,-0.15143 ,
0.68102,-0.71643,-0.15143 ,
0.8113,-0.56468,-0.15143 ,
0.90836,-0.38981,-0.15143 ,
0.96823,-0.19898,-0.15143 ,
0.98847,-2.421e-16,-0.15143 ,
0.96808,0,-0.25065 ,
0.94826,0.19487,-0.25065 ,
0.88962,0.38177,-0.25065 ,
0.79456,0.55303,-0.25065 ,
0.66697,0.70166,-0.25065 ,
0.51208,0.82155,-0.25065 ,
0.33622,0.90782,-0.25065 ,
0.14659,0.95691,-0.25065 ,
-0.049032,0.96683,-0.25065 ,
-0.24265,0.93717,-0.25065 ,
-0.42634,0.86914,-0.25065 ,
-0.59257,0.76553,-0.25065 ,
-0.73454,0.63058,-0.25065 ,
-0.84643,0.46981,-0.25065 ,
-0.92368,0.28981,-0.25065 ,
-0.96311,0.097939,-0.25065 ,
-0.96311,-0.097939,-0.25065 ,
-0.92368,-0.28981,-0.25065 ,
-0.84643,-0.46981,-0.25065 ,
-0.73454,-0.63058,-0.25065 ,
-0.59257,-0.76553,-0.25065 ,
-0.42634,-0.86914,-0.25065 ,
-0.24265,-0.93717,-0.25065 ,
-0.049032,-0.96683,-0.25065 ,
0.14659,-0.95691,-0.25065 ,
0.33622,-0.90782,-0.25065 ,
0.51208,-0.82155,-0.25065 ,
0.66697,-0.70166,-0.25065 ,
0.79456,-0.55303,-0.25065 ,
0.88962,-0.38177,-0.25065 ,
0.94826,-0.19487,-0.25065 ,
0.96808,-2.3711e-16,-0.25065 ,
0.93775,0,-0.34731 ,
0.91856,0.18877,-0.34731 ,
0.86175,0.36981,-0.34731 ,
0.76967,0.53571,-0.34731 ,
0.64608,0.67968,-0.34731 ,
0.49604,0.79582,-0.34731 ,
0.32569,0.87938,-0.34731 ,
0.142,0.92694,-0.34731 ,
-0.047496,0.93655,-0.34731 ,
-0.23505,0.90782,-0.34731 ,
-0.41298,0.84192,-0.34731 ,
-0.574,0.74155,-0.34731 ,
-0.71153,0.61083,-0.34731 ,
-0.81992,0.45509,-0.34731 ,
-0.89475,0.28073,-0.34731 ,
-0.93294,0.094871,-0.34731 ,
-0.93294,-0.094871,-0.34731 ,
-0.89475,-0.28073,-0.34731 ,
-0.81992,-0.45509,-0.34731 ,
-0.71153,-0.61083,-0.34731 ,
-0.574,-0.74155,-0.34731 ,
-0.41298,-0.84192,-0.34731 ,
-0.23505,-0.90782,-0.34731 ,
-0.047496,-0.93655,-0.34731 ,
0.142,-0.92694,-0.34731 ,
0.32569,-0.87938,-0.34731 ,
0.49604,-0.79582,-0.34731 ,
0.64608,-0.67968,-0.34731 ,
0.76967,-0.53571,-0.34731 ,
0.86175,-0.36981,-0.34731 ,
0.91856,-0.18877,-0.34731 ,
0.93775,-2.2968e-16,-0.34731 ,
0.8978,0,-0.44039 ,
0.87943,0.18073,-0.44039 ,
0.82504,0.35405,-0.44039 ,
0.73689,0.51289,-0.44039 ,
0.61856,0.65072,-0.44039 ,
0.47491,0.76192,-0.44039 ,
0.31181,0.84192,-0.44039 ,
0.13595,0.88745,-0.44039 ,
-0.045473,0.89665,-0.44039 ,
-0.22504,0.86914,-0.44039 ,
-0.39539,0.80605,-0.44039 ,
-0.54955,0.70996,-0.44039 ,
-0.68122,0.58481,-0.44039 ,
-0.78499,0.43571,-0.44039 ,
-0.85663,0.26877,-0.44039 ,
-0.8932,0.090829,-0.44039 ,
-0.8932,-0.090829,-0.44039 ,
-0.85663,-0.26877,-0.44039 ,
-0.78499,-0.43571,-0.44039 ,
-0.68122,-0.58481,-0.44039 ,
-0.54955,-0.70996,-0.44039 ,
-0.39539,-0.80605,-0.44039 ,
-0.22504,-0.86914,-0.44039 ,
-0.045473,-0.89665,-0.44039 ,
0.13595,-0.88745,-0.44039 ,
0.31181,-0.84192,-0.44039 ,
0.47491,-0.76192,-0.44039 ,
0.61856,-0.65072,-0.44039 ,
0.73689,-0.51289,-0.44039 ,
0.82504,-0.35405,-0.44039 ,
0.87943,-0.18073,-0.44039 ,
0.8978,-2.199e-16,-0.44039 ,
0.84864,0,-0.52896 ,
0.83127,0.17083,-0.52896 ,
0.77987,0.33467,-0.52896 ,
0.69654,0.4848,-0.52896 ,
0.58469,0.61509,-0.52896 ,
0.4489,0.7202,-0.52896 ,
0.29474,0.79582,-0.52896 ,
0.12851,0.83886,-0.52896 ,
-0.042983,0.84756,-0.52896 ,
-0.21271,0.82155,-0.52896 ,
-0.37374,0.76192,-0.52896 ,
-0.51946,0.67109,-0.52896 ,
-0.64392,0.55278,-0.52896 ,
-0.74201,0.41185,-0.52896 ,
-0.80972,0.25405,-0.52896 ,
-0.84429,0.085856,-0.52896 ,
-0.84429,-0.085856,-0.52896 ,
-0.80972,-0.25405,-0.52896 ,
-0.74201,-0.41185,-0.52896 ,
-0.64392,-0.55278,-0.52896 ,
-0.51946,-0.67109,-0.52896 ,
-0.37374,-0.76192,-0.52896 ,
-0.21271,-0.82155,-0.52896 ,
-0.042983,-0.84756,-0.52896 ,
0.12851,-0.83886,-0.52896 ,
0.29474,-0.79582,-0.52896 ,
0.4489,-0.7202,-0.52896 ,
0.58469,-0.61509,-0.52896 ,
0.69654,-0.4848,-0.52896 ,
0.77987,-0.33467,-0.52896 ,
0.83127,-0.17083,-0.52896 ,
0.84864,-2.0786e-16,-0.52896 ,
0.79078,0,-0.61211 ,
0.77459,0.15918,-0.61211 ,
0.72669,0.31185,-0.61211 ,
0.64904,0.45175,-0.61211 ,
0.54482,0.57315,-0.61211 ,
0.41829,0.67109,-0.61211 ,
0.27464,0.74155,-0.61211 ,
0.11975,0.78166,-0.61211 ,
-0.040052,0.78976,-0.61211 ,
-0.19821,0.76553,-0.61211 ,
-0.34825,0.70996,-0.61211 ,
-0.48404,0.62533,-0.61211 ,
-0.60001,0.51509,-0.61211 ,
-0.69141,0.38377,-0.61211 ,
-0.75451,0.23673,-0.61211 ,
-0.78672,0.080001,-0.61211 ,
-0.78672,-0.080001,-0.61211 ,
-0.75451,-0.23673,-0.61211 ,
-0.69141,-0.38377,-0.61211 ,
-0.60001,-0.51509,-0.61211 ,
-0.48404,-0.62533,-0.61211 ,
-0.34825,-0.70996,-0.61211 ,
-0.19821,-0.76553,-0.61211 ,
-0.040052,-0.78976,-0.61211 ,
0.11975,-0.78166,-0.61211 ,
0.27464,-0.74155,-0.61211 ,
0.41829,-0.67109,-0.61211 ,
0.54482,-0.57315,-0.61211 ,
0.64904,-0.45175,-0.61211 ,
0.72669,-0.31185,-0.61211 ,
0.77459,-0.15918,-0.61211 ,
0.79078,-1.9368e-16,-0.61211 ,
0.72479,0,-0.68897 ,
0.70996,0.1459,-0.68897 ,
0.66605,0.28583,-0.68897 ,
0.59488,0.41405,-0.68897 ,
0.49936,0.52532,-0.68897 ,
0.38339,0.61509,-0.68897 ,
0.25172,0.67968,-0.68897 ,
0.10975,0.71643,-0.68897 ,
-0.03671,0.72386,-0.68897 ,
-0.18167,0.70166,-0.68897 ,
-0.31919,0.65072,-0.68897 ,
-0.44365,0.57315,-0.68897 ,
-0.54994,0.47211,-0.68897 ,
-0.63372,0.35174,-0.68897 ,
-0.69155,0.21698,-0.68897 ,
-0.72107,0.073326,-0.68897 ,
-0.72107,-0.073326,-0.68897 ,
-0.69155,-0.21698,-0.68897 ,
-0.63372,-0.35174,-0.68897 ,
-0.54994,-0.47211,-0.68897 ,
-0.44365,-0.57315,-0.68897 ,
-0.31919,-0.65072,-0.68897 ,
-0.18167,-0.70166,-0.68897 ,
-0.03671,-0.72386,-0.68897 ,
0.10975,-0.71643,-0.68897 ,
0.25172,-0.67968,-0.68897 ,
0.38339,-0.61509,-0.68897 ,
0.49936,-0.52532,-0.68897 ,
0.59488,-0.41405,-0.68897 ,
0.66605,-0.28583,-0.68897 ,
0.70996,-0.1459,-0.68897 ,
0.72479,-1.7752e-16,-0.68897 ,
0.65137,0,-0.75876 ,
0.63804,0.13112,-0.75876 ,
0.59858,0.25687,-0.75876 ,
0.53462,0.37211,-0.75876 ,
0.44877,0.47211,-0.75876 ,
0.34455,0.55278,-0.75876 ,
0.22623,0.61083,-0.75876 ,
0.098636,0.64386,-0.75876 ,
-0.032991,0.65054,-0.75876 ,
-0.16327,0.63058,-0.75876 ,
-0.28686,0.58481,-0.75876 ,
-0.39871,0.51509,-0.75876 ,
-0.49423,0.42429,-0.75876 ,
-0.56953,0.31611,-0.75876 ,
-0.6215,0.195,-0.75876 ,
-0.64803,0.065898,-0.75876 ,
-0.64803,-0.065898,-0.75876 ,
-0.6215,-0.195,-0.75876 ,
-0.56953,-0.31611,-0.75876 ,
-0.49423,-0.42429,-0.75876 ,
-0.39871,-0.51509,-0.75876 ,
-0.28686,-0.58481,-0.75876 ,
-0.16327,-0.63058,-0.75876 ,
-0.032991,-0.65054,-0.75876 ,
0.098636,-0.64386,-0.75876 ,
0.22623,-0.61083,-0.75876 ,
0.34455,-0.55278,-0.75876 ,
0.44877,-0.47211,-0.75876 ,
0.53462,-0.37211,-0.75876 ,
0.59858,-0.25687,-0.75876 ,
0.63804,-0.13112,-0.75876 ,
0.65137,-1.5954e-16,-0.75876 ,
0.57127,0,-0.82076 ,
0.55957,0.115,-0.82076 ,
0.52497,0.22528,-0.82076 ,
0.46888,0.32635,-0.82076 ,
0.39358,0.41405,-0.82076 ,
0.30218,0.4848,-0.82076 ,
0.1984,0.53571,-0.82076 ,
0.086506,0.56468,-0.82076 ,
-0.028934,0.57053,-0.82076 ,
-0.14319,0.55303,-0.82076 ,
-0.25158,0.51289,-0.82076 ,
-0.34968,0.45175,-0.82076 ,
-0.43345,0.37211,-0.82076 ,
-0.49949,0.27724,-0.82076 ,
-0.54507,0.17102,-0.82076 ,
-0.56834,0.057794,-0.82076 ,
-0.56834,-0.057794,-0.82076 ,
-0.54507,-0.17102,-0.82076 ,
-0.49949,-0.27724,-0.82076 ,
-0.43345,-0.37211,-0.82076 ,
-0.34968,-0.45175,-0.82076 ,
-0.25158,-0.51289,-0.82076 ,
-0.14319,-0.55303,-0.82076 ,
-0.028934,-0.57053,-0.82076 ,
0.086506,-0.56468,-0.82076 ,
0.1984,-0.53571,-0.82076 ,
0.30218,-0.4848,-0.82076 ,
0.39358,-0.41405,-0.82076 ,
0.46888,-0.32635,-0.82076 ,
0.52497,-0.22528,-0.82076 ,
0.55957,-0.115,-0.82076 ,
0.57127,-1.3992e-16,-0.82076 ,
0.4853,0,-0.87435 ,
0.47537,0.097691,-0.87435 ,
0.44597,0.19138,-0.87435 ,
0.39832,0.27724,-0.87435 ,
0.33436,0.35174,-0.87435 ,
0.25671,0.41185,-0.87435 ,
0.16855,0.45509,-0.87435 ,
0.073488,0.47971,-0.87435 ,
-0.02458,0.48468,-0.87435 ,
-0.12164,0.46981,-0.87435 ,
-0.21372,0.43571,-0.87435 ,
-0.29706,0.38377,-0.87435 ,
-0.36823,0.31611,-0.87435 ,
-0.42432,0.23552,-0.87435 ,
-0.46305,0.14528,-0.87435 ,
-0.48281,0.049097,-0.87435 ,
-0.48281,-0.049097,-0.87435 ,
-0.46305,-0.14528,-0.87435 ,
-0.42432,-0.23552,-0.87435 ,
-0.36823,-0.31611,-0.87435 ,
-0.29706,-0.38377,-0.87435 ,
-0.21372,-0.43571,-0.87435 ,
-0.12164,-0.46981,-0.87435 ,
-0.02458,-0.48468,-0.87435 ,
0.073488,-0.47971,-0.87435 ,
0.16855,-0.45509,-0.87435 ,
0.25671,-0.41185,-0.87435 ,
0.33436,-0.35174,-0.87435 ,
0.39832,-0.27724,-0.87435 ,
0.44597,-0.19138,-0.87435 ,
0.47537,-0.097691,-0.87435 ,
0.4853,-1.1886e-16,-0.87435 ,
0.39436,0,-0.91896 ,
0.38628,0.079383,-0.91896 ,
0.3624,0.15552,-0.91896 ,
0.32367,0.22528,-0.91896 ,
0.2717,0.28583,-0.91896 ,
0.2086,0.33467,-0.91896 ,
0.13696,0.36981,-0.91896 ,
0.059716,0.38981,-0.91896 ,
-0.019974,0.39385,-0.91896 ,
-0.098846,0.38177,-0.91896 ,
-0.17367,0.35405,-0.91896 ,
-0.24139,0.31185,-0.91896 ,
-0.29922,0.25687,-0.91896 ,
-0.3448,0.19138,-0.91896 ,
-0.37627,0.11806,-0.91896 ,
-0.39233,0.039896,-0.91896 ,
-0.39233,-0.039896,-0.91896 ,
-0.37627,-0.11806,-0.91896 ,
-0.3448,-0.19138,-0.91896 ,
-0.29922,-0.25687,-0.91896 ,
-0.24139,-0.31185,-0.91896 ,
-0.17367,-0.35405,-0.91896 ,
-0.098846,-0.38177,-0.91896 ,
-0.019974,-0.39385,-0.91896 ,
0.059716,-0.38981,-0.91896 ,
0.13696,-0.36981,-0.91896 ,
0.2086,-0.33467,-0.91896 ,
0.2717,-0.28583,-0.91896 ,
0.32367,-0.22528,-0.91896 ,
0.3624,-0.15552,-0.91896 ,
0.38628,-0.079383,-0.91896 ,
0.39436,-9.6589e-17,-0.91896 ,
0.29936,0,-0.95414 ,
0.29324,0.060261,-0.95414 ,
0.2751,0.11806,-0.95414 ,
0.24571,0.17102,-0.95414 ,
0.20625,0.21698,-0.95414 ,
0.15835,0.25405,-0.95414 ,
0.10397,0.28073,-0.95414 ,
0.045332,0.29591,-0.95414 ,
-0.015162,0.29898,-0.95414 ,
-0.075036,0.28981,-0.95414 ,
-0.13184,0.26877,-0.95414 ,
-0.18324,0.23673,-0.95414 ,
-0.22714,0.195,-0.95414 ,
-0.26175,0.14528,-0.95414 ,
-0.28563,0.089618,-0.95414 ,
-0.29783,0.030286,-0.95414 ,
-0.29783,-0.030286,-0.95414 ,
-0.28563,-0.089618,-0.95414 ,
-0.26175,-0.14528,-0.95414 ,
-0.22714,-0.195,-0.95414 ,
-0.18324,-0.23673,-0.95414 ,
-0.13184,-0.26877,-0.95414 ,
-0.075036,-0.28981,-0.95414 ,
-0.015162,-0.29898,-0.95414 ,
0.045332,-0.29591,-0.95414 ,
0.10397,-0.28073,-0.95414 ,
0.15835,-0.25405,-0.95414 ,
0.20625,-0.21698,-0.95414 ,
0.24571,-0.17102,-0.95414 ,
0.2751,-0.11806,-0.95414 ,
0.29324,-0.060261,-0.95414 ,
0.29936,-7.3323e-17,-0.95414 ,
0.2013,0,-0.97953 ,
0.19718,0.040521,-0.97953 ,
0.18498,0.079383,-0.97953 ,
0.16522,0.115,-0.97953 ,
0.13869,0.1459,-0.97953 ,
0.10648,0.17083,-0.97953 ,
0.069912,0.18877,-0.97953 ,
0.030482,0.19898,-0.97953 ,
-0.010196,0.20104,-0.97953 ,
-0.050456,0.19487,-0.97953 ,
-0.088651,0.18073,-0.97953 ,
-0.12322,0.15918,-0.97953 ,
-0.15274,0.13112,-0.97953 ,
-0.176,0.097691,-0.97953 ,
-0.19207,0.060261,-0.97953 ,
-0.20027,0.020365,-0.97953 ,
-0.20027,-0.020365,-0.97953 ,
-0.19207,-0.060261,-0.97953 ,
-0.176,-0.097691,-0.97953 ,
-0.15274,-0.13112,-0.97953 ,
-0.12322,-0.15918,-0.97953 ,
-0.088651,-0.18073,-0.97953 ,
-0.050456,-0.19487,-0.97953 ,
-0.010196,-0.20104,-0.97953 ,
0.030482,-0.19898,-0.97953 ,
0.069912,-0.18877,-0.97953 ,
0.10648,-0.17083,-0.97953 ,
0.13869,-0.1459,-0.97953 ,
0.16522,-0.115,-0.97953 ,
0.18498,-0.079383,-0.97953 ,
0.19718,-0.040521,-0.97953 ,
0.2013,-4.9304e-17,-0.97953 ,
0.10117,0,-0.99487 ,
0.099097,0.020365,-0.99487 ,
0.092969,0.039896,-0.99487 ,
0.083035,0.057794,-0.99487 ,
0.069702,0.073326,-0.99487 ,
0.053514,0.085856,-0.99487 ,
0.035136,0.094871,-0.99487 ,
0.01532,0.1,-0.99487 ,
-0.0051241,0.10104,-0.99487 ,
-0.025358,0.097939,-0.99487 ,
-0.044554,0.090829,-0.99487 ,
-0.061926,0.080001,-0.99487 ,
-0.076762,0.065898,-0.99487 ,
-0.088456,0.049097,-0.99487 ,
-0.096529,0.030286,-0.99487 ,
-0.10065,0.010235,-0.99487 ,
-0.10065,-0.010235,-0.99487 ,
-0.096529,-0.030286,-0.99487 ,
-0.088456,-0.049097,-0.99487 ,
-0.076762,-0.065898,-0.99487 ,
-0.061926,-0.080001,-0.99487 ,
-0.044554,-0.090829,-0.99487 ,
-0.025358,-0.097939,-0.99487 ,
-0.0051241,-0.10104,-0.99487 ,
0.01532,-0.1,-0.99487 ,
0.035136,-0.094871,-0.99487 ,
0.053514,-0.085856,-0.99487 ,
0.069702,-0.073326,-0.99487 ,
0.083035,-0.057794,-0.99487 ,
0.092969,-0.039896,-0.99487 ,
0.099097,-0.020365,-0.99487 ,
0.10117,-2.4779e-17,-0.99487 ,
1.2246e-16,0,-1 ,
1.1996e-16,2.4652e-17,-1 ,
1.1254e-16,4.8295e-17,-1 ,
1.0051e-16,6.996e-17,-1 ,
8.4374e-17,8.8762e-17,-1 ,
6.4779e-17,1.0393e-16,-1 ,
4.2533e-17,1.1484e-16,-1 ,
1.8545e-17,1.2105e-16,-1 ,
-6.2027e-18,1.2231e-16,-1 ,
-3.0696e-17,1.1856e-16,-1 ,
-5.3933e-17,1.0995e-16,-1 ,
-7.4961e-17,9.6842e-17,-1 ,
-9.2921e-17,7.977e-17,-1 ,
-1.0708e-16,5.9432e-17,-1 ,
-1.1685e-16,3.6661e-17,-1 ,
-1.2184e-16,1.239e-17,-1 ,
-1.2184e-16,-1.239e-17,-1 ,
-1.1685e-16,-3.6661e-17,-1 ,
-1.0708e-16,-5.9432e-17,-1 ,
-9.2921e-17,-7.977e-17,-1 ,
-7.4961e-17,-9.6842e-17,-1 ,
-5.3933e-17,-1.0995e-16,-1 ,
-3.0696e-17,-1.1856e-16,-1 ,
-6.2027e-18,-1.2231e-16,-1 ,
1.8545e-17,-1.2105e-16,-1 ,
4.2533e-17,-1.1484e-16,-1 ,
6.4779e-17,-1.0393e-16,-1 ,
8.4374e-17,-8.8762e-17,-1 ,
1.0051e-16,-6.996e-17,-1 ,
1.1254e-16,-4.8295e-17,-1 ,
1.1996e-16,-2.4652e-17,-1 ,
1.2246e-16,-2.9995e-32,-1 ,
FACES=
989,993,990 ,
36,1,35 ,
973,993,974 ,
970,993,971 ,
991,993,961 ,
990,993,991 ,
977,993,978 ,
972,993,973 ,
971,993,972 ,
988,993,989 ,
987,993,988 ,
986,993,987 ,
43,1,42 ,
44,1,43 ,
56,1,55 ,
53,1,52 ,
974,993,975 ,
984,993,985 ,
985,993,986 ,
966,993,967 ,
967,993,968 ,
969,993,970 ,
968,993,969 ,
37,1,36 ,
38,1,37 ,
40,1,39 ,
39,1,38 ,
41,1,40 ,
42,1,41 ,
46,1,45 ,
45,1,44 ,
63,1,62 ,
33,1,63 ,
60,1,59 ,
59,1,58 ,
978,993,979 ,
976,993,977 ,
975,993,976 ,
981,993,982 ,
961,993,962 ,
962,993,963 ,
965,993,966 ,
35,1,34 ,
34,1,33 ,
62,1,61 ,
61,1,60 ,
54,1,53 ,
55,1,54 ,
47,1,46 ,
52,1,51 ,
57,1,56 ,
58,1,57 ,
980,993,981 ,
979,993,980 ,
983,993,984 ,
982,993,983 ,
963,993,964 ,
964,993,965 ,
49,1,48 ,
48,1,47 ,
50,1,49 ,
51,1,50 ,
529,528,560 ,
560,561,529 ,
496,528,529 ,
529,497,496 ,
543,544,511 ,
544,481,511 ,
380,381,349 ,
349,348,380 ,
413,381,380 ,
380,412,413 ,
349,381,350 ,
350,381,382 ,
645,677,646 ,
646,677,678 ,
554,521,553 ,
554,522,521 ,
554,555,523 ,
523,522,554 ,
587,619,620 ,
620,588,587 ,
362,330,329 ,
329,361,362 ,
329,330,298 ,
298,297,329 ,
264,232,231 ,
231,263,264 ,
265,233,264 ,
264,233,232 ,
524,491,523 ,
524,492,491 ,
687,719,688 ,
688,719,720 ,
653,685,686 ,
653,686,654 ,
659,627,658 ,
627,626,658 ,
658,691,659 ,
690,691,658 ,
569,536,568 ,
537,536,569 ,
733,765,766 ,
766,734,733 ,
786,787,755 ,
755,754,786 ,
117,116,148 ,
148,149,117 ,
338,306,305 ,
305,337,338 ,
305,306,274 ,
274,273,305 ,
575,544,543 ,
576,544,575 ,
317,349,350 ,
350,318,317 ,
317,318,286 ,
286,285,317 ,
414,381,413 ,
382,381,414 ,
479,478,510 ,
510,511,479 ,
316,348,349 ,
316,349,317 ,
646,678,647 ,
678,679,647 ,
615,614,647 ,
647,614,646 ,
647,679,680 ,
680,648,647 ,
616,615,647 ,
647,648,616 ,
362,361,393 ,
393,394,362 ,
490,522,523 ,
523,491,490 ,
521,522,490 ,
490,489,521 ,
457,489,490 ,
458,457,490 ,
426,394,393 ,
393,425,426 ,
426,457,458 ,
425,457,426 ,
460,492,461 ,
461,492,493 ,
493,494,461 ,
461,494,462 ,
397,396,428 ,
428,429,397 ,
428,460,461 ,
461,429,428 ,
362,394,363 ,
363,394,395 ,
586,619,587 ,
586,618,619 ,
586,555,554 ,
587,555,586 ,
718,719,687 ,
687,686,718 ,
751,719,718 ,
750,751,718 ,