&HEAD CHID='test' /

&MESH XB=-1.0,1.0,-1.0,1.0,-1.0,1.0 /
&GRID IBAR=10,JBAR=10,KBAR=10 /

&SURF ID='surf1',RGB=255,0,0 /
&SURF ID='surf1a',RGB=128,0,0 /
&SURF ID='surf2',RGB=0,255,0 /
&SURF ID='surf2a',RGB=0,128,0 /
&SURF ID='surf3',RGB=0,0,255 /
&SURF ID='surf3a',RGB=0,0,128 /
&SURF ID='surf4',RGB=255,0,255 /
&SURF ID='surf4a',RGB=128,0,128 /

***ELEVATION TEST

&GEOM ID='geom1',
        VERTS=-2.0,0.0,0.0,
              -1.0,0.0,0.0,
              -1.0,1.0,0.0,FACES=1,2,3,AZIM=0.0,ELEV=0,SURF_ID='surf1'/
&GEOM ID='geom2',
        VERTS=-2.0,0.0,0.0,
              -1.0,0.0,0.0,
              -1.0,1.0,0.0,FACES=1,2,3,AZIM=0.0,ELEV=45,SURF_ID='surf1a'/

***AZIMUTHAL TEST

&GEOM ID='geom3',
        VERTS=0.0,0.0,0.0,
              0.0,1.0,0.0,
              0.0,1.0,1.0,FACES=1,2,3,AZIM=0.0,ELEV=0,SURF_ID='surf2'/
&GEOM ID='geom4',
        VERTS=0.0,0.0,0.0,
              0.0,1.0,0.0,
              0.0,1.0,1.0,FACES=1,2,3,AZIM=45.0,ELEV=0,SURF_ID='surf2a'/

***TRANSLATION TESET

&GEOM ID='geom5',
        VERTS=2.0,0.0,0.0,
              2.0,1.0,0.0,
              2.0,1.0,1.0,FACES=1,2,3,XYZ=0.0,0.0,0.0,SURF_ID='surf3'/
&GEOM ID='geom6',
        VERTS=2.0,0.0,0.0,
              2.0,1.0,0.0,
              2.0,1.0,1.0,FACES=1,2,3,XYZ=0.0,0.0,-1.0,SURF_ID='surf3a'/

***TRANSLATION TESET

&GEOM ID='geom7',
        VERTS=0.0,0.0,2.0,
              0.0,1.0,2.0,
              1.0,1.0,2.0,FACES=1,2,3,SURF_ID='surf4'/
&GEOM ID='geom8',
        VERTS=0.0,0.0,3.0,
              0.0,1.0,3.0,
              1.0,1.0,3.0,FACES=1,2,3,SCALE=2.0,2.0,1.0,SURF_ID='surf4a'/
