&HEAD CHID='test' /

&MESH XB=-1.0,1.0,-1.0,1.0,-1.0,1.0 /
&GRID IBAR=10,JBAR=10,KBAR=10 /
&GEOM N_VERTS=3,VERTS=0.0,0.0,0.0,1.0,0.0,0.0,1.0,1.0,0.0,N_FACES=1,FACES=1,2,3/
