&HEAD CHID='wind_test1',TITLE='test experimental wind data display in smokeview SVN $Revision: 7448 $' /

&MESH IJK=16,16,32, XB=0.0,2.0,0.0,2.0,34.0,36.0 /


&TIME T_END=0.0 /  Total simulation time


&VENT XB=  0.0,2.0,0.0,0.0,34.0,36.0,SURF_ID='OPEN'/
&VENT XB=  2.0,2.0,0.0,2.0,34.0,36.0,SURF_ID='OPEN'/
&VENT XB=  0.0,2.0,2.0,2.0,34.0,36.0,SURF_ID='OPEN'/
&VENT XB=  0.0,0.0,0.0,2.0,34.0,36.0,SURF_ID='OPEN'/
&VENT XB=  0.0,2.0,0.0,2.0,36.0,36.0,SURF_ID='OPEN'/

