&HEAD CHID='dancing_eddies_1mesh', TITLE='Simple 2D Tunnel'/ 

&MESH IJK=300,1,20, XB=  0.0,300.0,-0.1,0.1,0.0,20.0 /

&TIME T_END=120.0 /

&MISC TURBULENCE_MODEL='CONSTANT SMAGORINSKY' /

&OBST XB=100.,102.,-5.,5.,5.,15. /

&SURF ID='BLOW', VEL=-5.0 /

&VENT PBX= 0.0,SURF_ID='BLOW' /
&VENT PBX=300.,SURF_ID='OPEN' /

&SLCF PBY=0.,QUANTITY='VELOCITY',VECTOR=.TRUE. /
&SLCF PBY=0.,QUANTITY='H' /

&DEVC XYZ=200.,0.,10., QUANTITY='PRESSURE', ID='pres' /

&TAIL /


