&HEAD CHID='tunnel' /
&MESH IJK=100,10,10, XB=0,100,-5,5,0,10 /
&TIME T_END=300 /
&VENT MB='XMIN', SURF_ID='OPEN', DYNAMIC_PRESSURE=0.  /
&VENT MB='XMAX', SURF_ID='OPEN', DYNAMIC_PRESSURE=2.4 /
&SLCF PBY=0., QUANTITY='VELOCITY', VECTOR=.TRUE. /
&SLCF PBY=0., QUANTITY='PRESSURE' /
&SLCF PBY=0., QUANTITY='H' /
&TAIL /
