&HEAD CHID='test_hrr_2d_cyl', TITLE='Comparison of HRR column between 2D cylindrical and 3D'/

&MESH IJK=20,1,40, XB=0,2,-0.01,0.01,0,4, CYLINDRICAL=T/

&TIME T_END=10/

&DUMP DT_HRR=0.1 /

&REAC FUEL='METHANE'/

&SURF ID='burner', HRRPUA=200, COLOR='RED'/

&OBST XB=0,0.5,-0.01,0.01,0,0.2
      SURF_IDS='burner','INERT','INERT'/

&VENT MB='XMAX', SURF_ID='OPEN'/
&VENT MB='ZMIN', SURF_ID='OPEN'/
&VENT MB='ZMAX', SURF_ID='OPEN'/

&SLCF PBY=0, QUANTITY='VELOCITY', VECTOR=T/
&SLCF PBY=0, QUANTITY='TEMPERATURE', CELL_CENTERED=T/
&SLCF PBY=0, QUANTITY='HRRPUV', CELL_CENTERED=T/

&DEVC XB=0,2,-0.01,0.01,0,4,
      QUANTITY='MASS FLUX', SPEC_ID='METHANE',
      SPATIAL_STATISTIC='SURFACE INTEGRAL', SURF_ID='burner', ID='MDOT METHANE'/

&TAIL /
