&HEAD CHID='spyro_cone_demo_3'/

&MESH XB=0.0,0.3,0.0,0.1,0.0,0.3,IJK=3,1,3/

&TIME T_END=500,DT=0.25/

&DUMP FLUSH_FILE_BUFFERS=F, NFRAMES=500/

&MISC SOLID_PHASE_ONLY=T,TMPA=-200,NOISE=F,HUMIDITY=0,Y_CO2_INFTY=0/

&REAC ID='PROPANE'/

&VENT XB=0.1,0.2,0.0,0.1,0.0,0.0,IOR=3,COLOR='GRAY 70',SURF_ID='ALL-50 50 7p3'/

&DEVC XYZ=0.15,0.05,0.00,IOR=3,QUANTITY='HRRPUA',ID='HRRPUA'/


&MATL ID='MAT', DENSITY=10000, CONDUCTIVITY=100,SPECIFIC_HEAT=10000,EMISSIVITY=1/

&SURF ID='ALL-50 50 7p3',
      COLOR='GRAY 20',
      MATL_ID(1,1)='MAT',
      THICKNESS(1:2)=0.0073,
      IGNITION_TEMPERATURE=-273.15,
      HRRPUA=1,INERT_Q_REF=T,
      SPEC_ID='PROPANE',
      REFERENCE_HEAT_FLUX=25,65,25,75,
      REFERENCE_HEAT_FLUX_TIME_INTERVAL=0.5,
      REFERENCE_THICKNESS=0.0062,0.0062,0.0084,0.0084,
      HEAT_OF_VAPORIZATION=822,
      RAMP_Q='25 DBI','65 DBI','25 FSRI','75 FSRI',
      HEAT_TRANSFER_COEFFICIENT=0,
      EXTERNAL_FLUX=50/

&RAMP ID='25 DBI',T=0,F=0.000/
&RAMP ID='25 DBI',T=1,F=3.236/
&RAMP ID='25 DBI',T=2,F=13.798/
&RAMP ID='25 DBI',T=3,F=31.327/
&RAMP ID='25 DBI',T=4,F=39.949/
&RAMP ID='25 DBI',T=5,F=53.951/
&RAMP ID='25 DBI',T=6,F=82.017/
&RAMP ID='25 DBI',T=7,F=102.334/
&RAMP ID='25 DBI',T=8,F=121.232/
&RAMP ID='25 DBI',T=9,F=151.479/
&RAMP ID='25 DBI',T=10,F=179.056/
&RAMP ID='25 DBI',T=11,F=192.180/
&RAMP ID='25 DBI',T=12,F=215.275/
&RAMP ID='25 DBI',T=13,F=247.645/
&RAMP ID='25 DBI',T=14,F=259.330/
&RAMP ID='25 DBI',T=15,F=272.280/
&RAMP ID='25 DBI',T=16,F=293.848/
&RAMP ID='25 DBI',T=17,F=301.984/
&RAMP ID='25 DBI',T=18,F=311.411/
&RAMP ID='25 DBI',T=19,F=326.581/
&RAMP ID='25 DBI',T=20,F=330.819/
&RAMP ID='25 DBI',T=21,F=330.714/
&RAMP ID='25 DBI',T=22,F=340.192/
&RAMP ID='25 DBI',T=23,F=352.235/
&RAMP ID='25 DBI',T=24,F=359.766/
&RAMP ID='25 DBI',T=25,F=364.049/
&RAMP ID='25 DBI',T=26,F=371.868/
&RAMP ID='25 DBI',T=27,F=374.943/
&RAMP ID='25 DBI',T=28,F=370.912/
&RAMP ID='25 DBI',T=29,F=372.507/
&RAMP ID='25 DBI',T=30,F=379.373/
&RAMP ID='25 DBI',T=31,F=385.014/
&RAMP ID='25 DBI',T=32,F=388.022/
&RAMP ID='25 DBI',T=33,F=390.554/
&RAMP ID='25 DBI',T=34,F=389.324/
&RAMP ID='25 DBI',T=35,F=388.911/
&RAMP ID='25 DBI',T=36,F=384.971/
&RAMP ID='25 DBI',T=37,F=387.058/
&RAMP ID='25 DBI',T=38,F=395.235/
&RAMP ID='25 DBI',T=39,F=397.091/
&RAMP ID='25 DBI',T=40,F=393.792/
&RAMP ID='25 DBI',T=41,F=394.475/
&RAMP ID='25 DBI',T=42,F=398.725/
&RAMP ID='25 DBI',T=43,F=398.104/
&RAMP ID='25 DBI',T=44,F=409.449/
&RAMP ID='25 DBI',T=45,F=419.154/
&RAMP ID='25 DBI',T=46,F=411.165/
&RAMP ID='25 DBI',T=47,F=408.745/
&RAMP ID='25 DBI',T=48,F=413.787/
&RAMP ID='25 DBI',T=49,F=412.102/
&RAMP ID='25 DBI',T=50,F=421.098/
&RAMP ID='25 DBI',T=51,F=430.613/
&RAMP ID='25 DBI',T=52,F=422.913/
&RAMP ID='25 DBI',T=53,F=418.638/
&RAMP ID='25 DBI',T=54,F=423.688/
&RAMP ID='25 DBI',T=55,F=423.280/
&RAMP ID='25 DBI',T=56,F=425.139/
&RAMP ID='25 DBI',T=57,F=428.617/
&RAMP ID='25 DBI',T=58,F=428.878/
&RAMP ID='25 DBI',T=59,F=427.324/
&RAMP ID='25 DBI',T=60,F=425.458/
&RAMP ID='25 DBI',T=61,F=426.778/
&RAMP ID='25 DBI',T=62,F=431.311/
&RAMP ID='25 DBI',T=63,F=440.059/
&RAMP ID='25 DBI',T=64,F=445.985/
&RAMP ID='25 DBI',T=65,F=442.221/
&RAMP ID='25 DBI',T=66,F=443.283/
&RAMP ID='25 DBI',T=67,F=447.250/
&RAMP ID='25 DBI',T=68,F=436.731/
&RAMP ID='25 DBI',T=69,F=436.742/
&RAMP ID='25 DBI',T=70,F=441.931/
&RAMP ID='25 DBI',T=71,F=437.992/
&RAMP ID='25 DBI',T=72,F=437.731/
&RAMP ID='25 DBI',T=73,F=436.529/
&RAMP ID='25 DBI',T=74,F=430.675/
&RAMP ID='25 DBI',T=75,F=434.625/
&RAMP ID='25 DBI',T=76,F=445.986/
&RAMP ID='25 DBI',T=77,F=451.255/
&RAMP ID='25 DBI',T=78,F=448.012/
&RAMP ID='25 DBI',T=79,F=441.469/
&RAMP ID='25 DBI',T=80,F=438.606/
&RAMP ID='25 DBI',T=81,F=441.572/
&RAMP ID='25 DBI',T=82,F=451.880/
&RAMP ID='25 DBI',T=83,F=459.458/
&RAMP ID='25 DBI',T=84,F=450.426/
&RAMP ID='25 DBI',T=85,F=444.582/
&RAMP ID='25 DBI',T=86,F=449.383/
&RAMP ID='25 DBI',T=87,F=456.795/
&RAMP ID='25 DBI',T=88,F=457.343/
&RAMP ID='25 DBI',T=89,F=455.810/
&RAMP ID='25 DBI',T=90,F=462.892/
&RAMP ID='25 DBI',T=91,F=467.512/
&RAMP ID='25 DBI',T=92,F=461.065/
&RAMP ID='25 DBI',T=93,F=459.059/
&RAMP ID='25 DBI',T=94,F=462.235/
&RAMP ID='25 DBI',T=95,F=462.339/
&RAMP ID='25 DBI',T=96,F=462.542/
&RAMP ID='25 DBI',T=97,F=460.728/
&RAMP ID='25 DBI',T=98,F=468.522/
&RAMP ID='25 DBI',T=99,F=477.993/
&RAMP ID='25 DBI',T=100,F=477.516/
&RAMP ID='25 DBI',T=101,F=470.515/
&RAMP ID='25 DBI',T=102,F=468.712/
&RAMP ID='25 DBI',T=103,F=466.436/
&RAMP ID='25 DBI',T=104,F=475.025/
&RAMP ID='25 DBI',T=105,F=479.367/
&RAMP ID='25 DBI',T=106,F=473.498/
&RAMP ID='25 DBI',T=107,F=469.932/
&RAMP ID='25 DBI',T=108,F=470.729/
&RAMP ID='25 DBI',T=109,F=472.061/
&RAMP ID='25 DBI',T=110,F=471.520/
&RAMP ID='25 DBI',T=111,F=471.853/
&RAMP ID='25 DBI',T=112,F=473.932/
&RAMP ID='25 DBI',T=113,F=477.522/
&RAMP ID='25 DBI',T=114,F=485.052/
&RAMP ID='25 DBI',T=115,F=490.618/
&RAMP ID='25 DBI',T=116,F=489.304/
&RAMP ID='25 DBI',T=117,F=487.404/
&RAMP ID='25 DBI',T=118,F=488.701/
&RAMP ID='25 DBI',T=119,F=492.339/
&RAMP ID='25 DBI',T=120,F=493.041/
&RAMP ID='25 DBI',T=121,F=492.824/
&RAMP ID='25 DBI',T=122,F=491.841/
&RAMP ID='25 DBI',T=123,F=491.641/
&RAMP ID='25 DBI',T=124,F=495.759/
&RAMP ID='25 DBI',T=125,F=495.759/
&RAMP ID='25 DBI',T=126,F=486.500/
&RAMP ID='25 DBI',T=127,F=486.368/
&RAMP ID='25 DBI',T=128,F=491.013/
&RAMP ID='25 DBI',T=129,F=490.599/
&RAMP ID='25 DBI',T=130,F=492.739/
&RAMP ID='25 DBI',T=131,F=493.616/
&RAMP ID='25 DBI',T=132,F=493.741/
&RAMP ID='25 DBI',T=133,F=492.750/
&RAMP ID='25 DBI',T=134,F=492.059/
&RAMP ID='25 DBI',T=135,F=491.971/
&RAMP ID='25 DBI',T=136,F=493.727/
&RAMP ID='25 DBI',T=137,F=497.529/
&RAMP ID='25 DBI',T=138,F=496.780/
&RAMP ID='25 DBI',T=139,F=495.947/
&RAMP ID='25 DBI',T=140,F=500.795/
&RAMP ID='25 DBI',T=141,F=503.096/
&RAMP ID='25 DBI',T=142,F=498.553/
&RAMP ID='25 DBI',T=143,F=504.310/
&RAMP ID='25 DBI',T=144,F=512.200/
&RAMP ID='25 DBI',T=145,F=511.529/
&RAMP ID='25 DBI',T=146,F=503.940/
&RAMP ID='25 DBI',T=147,F=498.753/
&RAMP ID='25 DBI',T=148,F=504.399/
&RAMP ID='25 DBI',T=149,F=503.487/
&RAMP ID='25 DBI',T=150,F=500.934/
&RAMP ID='25 DBI',T=151,F=502.548/
&RAMP ID='25 DBI',T=152,F=509.942/
&RAMP ID='25 DBI',T=153,F=514.876/
&RAMP ID='25 DBI',T=154,F=514.819/
&RAMP ID='25 DBI',T=155,F=513.382/
&RAMP ID='25 DBI',T=156,F=515.919/
&RAMP ID='25 DBI',T=157,F=520.395/
&RAMP ID='25 DBI',T=158,F=513.247/
&RAMP ID='25 DBI',T=159,F=515.163/
&RAMP ID='25 DBI',T=160,F=523.750/
&RAMP ID='25 DBI',T=161,F=527.910/
&RAMP ID='25 DBI',T=162,F=531.672/
&RAMP ID='25 DBI',T=163,F=535.595/
&RAMP ID='25 DBI',T=164,F=535.485/
&RAMP ID='25 DBI',T=165,F=535.372/
&RAMP ID='25 DBI',T=166,F=538.395/
&RAMP ID='25 DBI',T=167,F=534.469/
&RAMP ID='25 DBI',T=168,F=534.922/
&RAMP ID='25 DBI',T=169,F=539.489/
&RAMP ID='25 DBI',T=170,F=538.853/
&RAMP ID='25 DBI',T=171,F=535.626/
&RAMP ID='25 DBI',T=172,F=532.315/
&RAMP ID='25 DBI',T=173,F=534.288/
&RAMP ID='25 DBI',T=174,F=536.605/
&RAMP ID='25 DBI',T=175,F=539.703/
&RAMP ID='25 DBI',T=176,F=542.587/
&RAMP ID='25 DBI',T=177,F=545.271/
&RAMP ID='25 DBI',T=178,F=543.193/
&RAMP ID='25 DBI',T=179,F=541.104/
&RAMP ID='25 DBI',T=180,F=551.165/
&RAMP ID='25 DBI',T=181,F=552.561/
&RAMP ID='25 DBI',T=182,F=550.350/
&RAMP ID='25 DBI',T=183,F=547.879/
&RAMP ID='25 DBI',T=184,F=551.286/
&RAMP ID='25 DBI',T=185,F=557.517/
&RAMP ID='25 DBI',T=186,F=559.726/
&RAMP ID='25 DBI',T=187,F=557.174/
&RAMP ID='25 DBI',T=188,F=556.615/
&RAMP ID='25 DBI',T=189,F=557.157/
&RAMP ID='25 DBI',T=190,F=560.380/
&RAMP ID='25 DBI',T=191,F=567.250/
&RAMP ID='25 DBI',T=192,F=570.774/
&RAMP ID='25 DBI',T=193,F=562.600/
&RAMP ID='25 DBI',T=194,F=562.744/
&RAMP ID='25 DBI',T=195,F=571.765/
&RAMP ID='25 DBI',T=196,F=579.482/
&RAMP ID='25 DBI',T=197,F=576.759/
&RAMP ID='25 DBI',T=198,F=571.452/
&RAMP ID='25 DBI',T=199,F=581.176/
&RAMP ID='25 DBI',T=200,F=579.705/
&RAMP ID='25 DBI',T=201,F=574.253/
&RAMP ID='25 DBI',T=202,F=576.122/
&RAMP ID='25 DBI',T=203,F=576.485/
&RAMP ID='25 DBI',T=204,F=574.729/
&RAMP ID='25 DBI',T=205,F=576.626/
&RAMP ID='25 DBI',T=206,F=582.337/
&RAMP ID='25 DBI',T=207,F=574.158/
&RAMP ID='25 DBI',T=208,F=566.803/
&RAMP ID='25 DBI',T=209,F=580.935/
&RAMP ID='25 DBI',T=210,F=585.002/
&RAMP ID='25 DBI',T=211,F=580.394/
&RAMP ID='25 DBI',T=212,F=571.283/
&RAMP ID='25 DBI',T=213,F=573.468/
&RAMP ID='25 DBI',T=214,F=583.998/
&RAMP ID='25 DBI',T=215,F=585.396/
&RAMP ID='25 DBI',T=216,F=580.008/
&RAMP ID='25 DBI',T=217,F=581.564/
&RAMP ID='25 DBI',T=218,F=586.627/
&RAMP ID='25 DBI',T=219,F=586.241/
&RAMP ID='25 DBI',T=220,F=585.068/
&RAMP ID='25 DBI',T=221,F=596.643/
&RAMP ID='25 DBI',T=222,F=595.302/
&RAMP ID='25 DBI',T=223,F=593.813/
&RAMP ID='25 DBI',T=224,F=602.082/
&RAMP ID='25 DBI',T=225,F=604.222/
&RAMP ID='25 DBI',T=226,F=611.113/
&RAMP ID='25 DBI',T=227,F=617.234/
&RAMP ID='25 DBI',T=228,F=610.975/
&RAMP ID='25 DBI',T=229,F=603.091/
&RAMP ID='25 DBI',T=230,F=602.356/
&RAMP ID='25 DBI',T=231,F=596.696/
&RAMP ID='25 DBI',T=232,F=595.685/
&RAMP ID='25 DBI',T=233,F=595.267/
&RAMP ID='25 DBI',T=234,F=595.284/
&RAMP ID='25 DBI',T=235,F=599.119/
&RAMP ID='25 DBI',T=236,F=599.471/
&RAMP ID='25 DBI',T=237,F=601.348/
&RAMP ID='25 DBI',T=238,F=610.306/
&RAMP ID='25 DBI',T=239,F=620.455/
&RAMP ID='25 DBI',T=240,F=618.781/
&RAMP ID='25 DBI',T=241,F=611.765/
&RAMP ID='25 DBI',T=242,F=604.498/
&RAMP ID='25 DBI',T=243,F=603.701/
&RAMP ID='25 DBI',T=244,F=611.073/
&RAMP ID='25 DBI',T=245,F=611.189/
&RAMP ID='25 DBI',T=246,F=607.738/
&RAMP ID='25 DBI',T=247,F=612.664/
&RAMP ID='25 DBI',T=248,F=623.812/
&RAMP ID='25 DBI',T=249,F=634.896/
&RAMP ID='25 DBI',T=250,F=637.793/
&RAMP ID='25 DBI',T=251,F=631.778/
&RAMP ID='25 DBI',T=252,F=631.679/
&RAMP ID='25 DBI',T=253,F=628.269/
&RAMP ID='25 DBI',T=254,F=632.081/
&RAMP ID='25 DBI',T=255,F=638.337/
&RAMP ID='25 DBI',T=256,F=637.810/
&RAMP ID='25 DBI',T=257,F=634.369/
&RAMP ID='25 DBI',T=258,F=640.826/
&RAMP ID='25 DBI',T=259,F=642.345/
&RAMP ID='25 DBI',T=260,F=637.040/
&RAMP ID='25 DBI',T=261,F=636.130/
&RAMP ID='25 DBI',T=262,F=637.532/
&RAMP ID='25 DBI',T=263,F=645.721/
&RAMP ID='25 DBI',T=264,F=644.416/
&RAMP ID='25 DBI',T=265,F=639.828/
&RAMP ID='25 DBI',T=266,F=640.917/
&RAMP ID='25 DBI',T=267,F=646.837/
&RAMP ID='25 DBI',T=268,F=652.037/
&RAMP ID='25 DBI',T=269,F=650.242/
&RAMP ID='25 DBI',T=270,F=659.403/
&RAMP ID='25 DBI',T=271,F=667.656/
&RAMP ID='25 DBI',T=272,F=653.304/
&RAMP ID='25 DBI',T=273,F=649.396/
&RAMP ID='25 DBI',T=274,F=666.682/
&RAMP ID='25 DBI',T=275,F=675.810/
&RAMP ID='25 DBI',T=276,F=681.758/
&RAMP ID='25 DBI',T=277,F=685.252/
&RAMP ID='25 DBI',T=278,F=688.719/
&RAMP ID='25 DBI',T=279,F=683.646/
&RAMP ID='25 DBI',T=280,F=675.400/
&RAMP ID='25 DBI',T=281,F=675.070/
&RAMP ID='25 DBI',T=282,F=674.316/
&RAMP ID='25 DBI',T=283,F=687.208/
&RAMP ID='25 DBI',T=284,F=700.702/
&RAMP ID='25 DBI',T=285,F=698.498/
&RAMP ID='25 DBI',T=286,F=691.456/
&RAMP ID='25 DBI',T=287,F=686.797/
&RAMP ID='25 DBI',T=288,F=686.485/
&RAMP ID='25 DBI',T=289,F=698.086/
&RAMP ID='25 DBI',T=290,F=713.072/
&RAMP ID='25 DBI',T=291,F=714.678/
&RAMP ID='25 DBI',T=292,F=698.756/
&RAMP ID='25 DBI',T=293,F=696.174/
&RAMP ID='25 DBI',T=294,F=703.652/
&RAMP ID='25 DBI',T=295,F=686.966/
&RAMP ID='25 DBI',T=296,F=680.741/
&RAMP ID='25 DBI',T=297,F=684.963/
&RAMP ID='25 DBI',T=298,F=683.925/
&RAMP ID='25 DBI',T=299,F=681.103/
&RAMP ID='25 DBI',T=300,F=677.647/
&RAMP ID='25 DBI',T=301,F=689.570/
&RAMP ID='25 DBI',T=302,F=689.913/
&RAMP ID='25 DBI',T=303,F=678.328/
&RAMP ID='25 DBI',T=304,F=690.012/
&RAMP ID='25 DBI',T=305,F=687.616/
&RAMP ID='25 DBI',T=306,F=671.678/
&RAMP ID='25 DBI',T=307,F=666.496/
&RAMP ID='25 DBI',T=308,F=675.623/
&RAMP ID='25 DBI',T=309,F=673.665/
&RAMP ID='25 DBI',T=310,F=665.635/
&RAMP ID='25 DBI',T=311,F=672.835/
&RAMP ID='25 DBI',T=312,F=680.876/
&RAMP ID='25 DBI',T=313,F=680.179/
&RAMP ID='25 DBI',T=314,F=667.186/
&RAMP ID='25 DBI',T=315,F=651.227/
&RAMP ID='25 DBI',T=316,F=638.566/
&RAMP ID='25 DBI',T=317,F=626.653/
&RAMP ID='25 DBI',T=318,F=627.686/
&RAMP ID='25 DBI',T=319,F=620.958/
&RAMP ID='25 DBI',T=320,F=614.603/
&RAMP ID='25 DBI',T=321,F=612.048/
&RAMP ID='25 DBI',T=322,F=604.376/
&RAMP ID='25 DBI',T=323,F=599.741/
&RAMP ID='25 DBI',T=324,F=598.963/
&RAMP ID='25 DBI',T=325,F=586.541/
&RAMP ID='25 DBI',T=326,F=567.949/
&RAMP ID='25 DBI',T=327,F=555.700/
&RAMP ID='25 DBI',T=328,F=542.962/
&RAMP ID='25 DBI',T=329,F=521.321/
&RAMP ID='25 DBI',T=330,F=505.322/
&RAMP ID='25 DBI',T=331,F=492.513/
&RAMP ID='25 DBI',T=332,F=467.584/
&RAMP ID='25 DBI',T=333,F=454.515/
&RAMP ID='25 DBI',T=334,F=440.039/
&RAMP ID='25 DBI',T=335,F=410.503/
&RAMP ID='25 DBI',T=336,F=387.042/
&RAMP ID='25 DBI',T=337,F=378.968/
&RAMP ID='25 DBI',T=338,F=358.355/
&RAMP ID='25 DBI',T=339,F=331.665/
&RAMP ID='25 DBI',T=340,F=316.643/
&RAMP ID='25 DBI',T=341,F=292.108/
&RAMP ID='25 DBI',T=342,F=268.446/
&RAMP ID='25 DBI',T=343,F=258.135/
&RAMP ID='25 DBI',T=344,F=236.352/
&RAMP ID='25 DBI',T=345,F=204.546/
&RAMP ID='25 DBI',T=346,F=191.073/
&RAMP ID='25 DBI',T=347,F=180.528/
&RAMP ID='25 DBI',T=348,F=158.885/
&RAMP ID='25 DBI',T=349,F=149.580/
&RAMP ID='25 DBI',T=350,F=139.998/
&RAMP ID='25 DBI',T=351,F=122.971/
&RAMP ID='25 DBI',T=352,F=113.356/
&RAMP ID='25 DBI',T=353,F=106.531/
&RAMP ID='25 DBI',T=354,F=95.425/
&RAMP ID='25 DBI',T=355,F=87.358/
&RAMP ID='25 DBI',T=356,F=82.501/
&RAMP ID='25 DBI',T=357,F=75.931/
&RAMP ID='25 DBI',T=358,F=71.357/
&RAMP ID='25 DBI',T=359,F=67.539/
&RAMP ID='25 DBI',T=360,F=63.163/
&RAMP ID='25 DBI',T=361,F=59.121/
&RAMP ID='25 DBI',T=362,F=56.946/
&RAMP ID='25 DBI',T=363,F=54.852/
&RAMP ID='25 DBI',T=364,F=50.710/
&RAMP ID='25 DBI',T=365,F=48.299/
&RAMP ID='25 DBI',T=366,F=46.265/
&RAMP ID='25 DBI',T=367,F=43.491/
&RAMP ID='25 DBI',T=368,F=41.712/
&RAMP ID='25 DBI',T=369,F=40.727/
&RAMP ID='25 DBI',T=370,F=38.231/
&RAMP ID='25 DBI',T=371,F=35.814/
&RAMP ID='25 DBI',T=372,F=35.385/
&RAMP ID='25 DBI',T=373,F=34.339/
&RAMP ID='25 DBI',T=374,F=32.981/
&RAMP ID='25 DBI',T=375,F=32.438/
&RAMP ID='25 DBI',T=376,F=31.812/
&RAMP ID='25 DBI',T=377,F=30.640/
&RAMP ID='25 DBI',T=378,F=29.944/
&RAMP ID='25 DBI',T=379,F=29.025/
&RAMP ID='25 DBI',T=380,F=27.308/
&RAMP ID='25 DBI',T=381,F=26.933/
&RAMP ID='25 DBI',T=382,F=26.369/
&RAMP ID='25 DBI',T=383,F=24.763/
&RAMP ID='25 DBI',T=384,F=23.690/
&RAMP ID='25 DBI',T=385,F=23.274/
&RAMP ID='25 DBI',T=386,F=22.476/
&RAMP ID='25 DBI',T=387,F=21.291/
&RAMP ID='25 DBI',T=388,F=20.589/
&RAMP ID='25 DBI',T=389,F=20.156/
&RAMP ID='25 DBI',T=390,F=19.594/
&RAMP ID='25 DBI',T=391,F=19.229/
&RAMP ID='25 DBI',T=392,F=18.636/
&RAMP ID='25 DBI',T=393,F=17.359/
&RAMP ID='25 DBI',T=394,F=16.783/
&RAMP ID='25 DBI',T=395,F=16.546/
&RAMP ID='25 DBI',T=396,F=15.731/
&RAMP ID='25 DBI',T=397,F=15.090/
&RAMP ID='25 DBI',T=398,F=14.711/
&RAMP ID='25 DBI',T=399,F=14.235/
&RAMP ID='25 DBI',T=400,F=14.032/
&RAMP ID='25 DBI',T=401,F=13.810/
&RAMP ID='25 DBI',T=402,F=12.982/
&RAMP ID='25 DBI',T=403,F=12.127/
&RAMP ID='25 DBI',T=404,F=11.784/
&RAMP ID='25 DBI',T=405,F=11.437/
&RAMP ID='25 DBI',T=406,F=10.918/
&RAMP ID='25 DBI',T=407,F=10.751/
&RAMP ID='25 DBI',T=408,F=10.510/
&RAMP ID='25 DBI',T=409,F=10.071/
&RAMP ID='25 DBI',T=410,F=9.977/
&RAMP ID='25 DBI',T=411,F=9.825/
&RAMP ID='25 DBI',T=412,F=14.074/
&RAMP ID='25 DBI',T=413,F=13.689/
&RAMP ID='25 DBI',T=414,F=13.144/
&RAMP ID='25 DBI',T=415,F=12.416/
&RAMP ID='25 DBI',T=416,F=12.137/
&RAMP ID='25 DBI',T=417,F=11.869/
&RAMP ID='25 DBI',T=418,F=11.345/
&RAMP ID='25 DBI',T=419,F=10.817/
&RAMP ID='25 DBI',T=420,F=10.631/
&RAMP ID='25 DBI',T=421,F=10.005/
&RAMP ID='25 DBI',T=422,F=9.269/
&RAMP ID='25 DBI',T=423,F=9.000/
&RAMP ID='25 DBI',T=424,F=8.630/
&RAMP ID='25 DBI',T=425,F=8.090/
&RAMP ID='25 DBI',T=426,F=7.523/
&RAMP ID='25 DBI',T=427,F=6.985/
&RAMP ID='25 DBI',T=428,F=13.456/
&RAMP ID='25 DBI',T=429,F=13.427/
&RAMP ID='25 DBI',T=430,F=13.367/
&RAMP ID='25 DBI',T=431,F=12.733/
&RAMP ID='25 DBI',T=432,F=12.366/
&RAMP ID='25 DBI',T=433,F=12.084/
&RAMP ID='25 DBI',T=434,F=11.393/
&RAMP ID='25 DBI',T=435,F=10.806/
&RAMP ID='25 DBI',T=436,F=10.497/
&RAMP ID='25 DBI',T=437,F=10.529/
&RAMP ID='25 DBI',T=438,F=10.336/
&RAMP ID='25 DBI',T=439,F=9.999/
&RAMP ID='25 DBI',T=440,F=9.664/
&RAMP ID='25 DBI',T=441,F=9.257/
&RAMP ID='25 DBI',T=442,F=9.064/
&RAMP ID='25 DBI',T=443,F=9.020/
&RAMP ID='25 DBI',T=444,F=8.606/
&RAMP ID='25 DBI',T=445,F=8.040/
&RAMP ID='25 DBI',T=446,F=7.705/
&RAMP ID='25 DBI',T=447,F=7.543/
&RAMP ID='25 DBI',T=448,F=7.668/
&RAMP ID='25 DBI',T=449,F=7.358/
&RAMP ID='25 DBI',T=450,F=6.769/
&RAMP ID='25 DBI',T=451,F=6.025/
&RAMP ID='25 DBI',T=452,F=5.530/
&RAMP ID='25 DBI',T=453,F=5.389/
&RAMP ID='25 DBI',T=454,F=4.873/
&RAMP ID='25 DBI',T=455,F=4.481/
&RAMP ID='25 DBI',T=456,F=4.561/
&RAMP ID='25 DBI',T=457,F=4.237/
&RAMP ID='25 DBI',T=458,F=3.937/
&RAMP ID='25 DBI',T=459,F=3.967/
&RAMP ID='25 DBI',T=460,F=3.649/
&RAMP ID='25 DBI',T=461,F=3.256/
&RAMP ID='25 DBI',T=462,F=2.958/
&RAMP ID='25 DBI',T=463,F=2.622/
&RAMP ID='25 DBI',T=464,F=2.509/
&RAMP ID='25 DBI',T=465,F=2.025/
&RAMP ID='25 DBI',T=466,F=1.545/
&RAMP ID='25 DBI',T=467,F=1.531/
&RAMP ID='25 DBI',T=468,F=1.524/
&RAMP ID='25 DBI',T=469,F=1.513/
&RAMP ID='25 DBI',T=470,F=1.588/
&RAMP ID='25 DBI',T=471,F=1.697/
&RAMP ID='25 DBI',T=472,F=1.849/
&RAMP ID='25 DBI',T=473,F=1.964/
&RAMP ID='25 DBI',T=474,F=1.966/
&RAMP ID='25 DBI',T=475,F=1.383/
&RAMP ID='25 DBI',T=476,F=0.875/
&RAMP ID='25 DBI',T=477,F=0.864/
&RAMP ID='25 DBI',T=478,F=0.987/
&RAMP ID='25 DBI',T=479,F=1.228/
&RAMP ID='25 DBI',T=480,F=1.329/
&RAMP ID='25 DBI',T=481,F=0.912/
&RAMP ID='25 DBI',T=482,F=0.357/
&RAMP ID='25 DBI',T=483,F=0.170/
&RAMP ID='25 DBI',T=484,F=0.140/
&RAMP ID='25 DBI',T=485,F=0.107/
&RAMP ID='25 DBI',T=486,F=0.000/

&RAMP ID='65 DBI',T=0,F=0.000/
&RAMP ID='65 DBI',T=1,F=11.717/
&RAMP ID='65 DBI',T=2,F=60.456/
&RAMP ID='65 DBI',T=3,F=83.276/
&RAMP ID='65 DBI',T=4,F=148.221/
&RAMP ID='65 DBI',T=5,F=266.118/
&RAMP ID='65 DBI',T=6,F=305.758/
&RAMP ID='65 DBI',T=7,F=369.078/
&RAMP ID='65 DBI',T=8,F=462.582/
&RAMP ID='65 DBI',T=9,F=475.601/
&RAMP ID='65 DBI',T=10,F=503.855/
&RAMP ID='65 DBI',T=11,F=556.892/
&RAMP ID='65 DBI',T=12,F=572.155/
&RAMP ID='65 DBI',T=13,F=598.931/
&RAMP ID='65 DBI',T=14,F=625.635/
&RAMP ID='65 DBI',T=15,F=658.814/
&RAMP ID='65 DBI',T=16,F=685.534/
&RAMP ID='65 DBI',T=17,F=697.853/
&RAMP ID='65 DBI',T=18,F=709.440/
&RAMP ID='65 DBI',T=19,F=707.222/
&RAMP ID='65 DBI',T=20,F=729.038/
&RAMP ID='65 DBI',T=21,F=753.512/
&RAMP ID='65 DBI',T=22,F=753.364/
&RAMP ID='65 DBI',T=23,F=748.167/
&RAMP ID='65 DBI',T=24,F=758.475/
&RAMP ID='65 DBI',T=25,F=766.900/
&RAMP ID='65 DBI',T=26,F=763.361/
&RAMP ID='65 DBI',T=27,F=778.102/
&RAMP ID='65 DBI',T=28,F=788.202/
&RAMP ID='65 DBI',T=29,F=781.445/
&RAMP ID='65 DBI',T=30,F=782.768/
&RAMP ID='65 DBI',T=31,F=796.613/
&RAMP ID='65 DBI',T=32,F=805.086/
&RAMP ID='65 DBI',T=33,F=806.849/
&RAMP ID='65 DBI',T=34,F=817.591/
&RAMP ID='65 DBI',T=35,F=822.014/
&RAMP ID='65 DBI',T=36,F=805.143/
&RAMP ID='65 DBI',T=37,F=799.778/
&RAMP ID='65 DBI',T=38,F=784.403/
&RAMP ID='65 DBI',T=39,F=776.792/
&RAMP ID='65 DBI',T=40,F=782.587/
&RAMP ID='65 DBI',T=41,F=806.561/
&RAMP ID='65 DBI',T=42,F=818.993/
&RAMP ID='65 DBI',T=43,F=823.328/
&RAMP ID='65 DBI',T=44,F=819.450/
&RAMP ID='65 DBI',T=45,F=801.444/
&RAMP ID='65 DBI',T=46,F=803.028/
&RAMP ID='65 DBI',T=47,F=810.312/
&RAMP ID='65 DBI',T=48,F=797.919/
&RAMP ID='65 DBI',T=49,F=817.642/
&RAMP ID='65 DBI',T=50,F=835.491/
&RAMP ID='65 DBI',T=51,F=813.413/
&RAMP ID='65 DBI',T=52,F=810.275/
&RAMP ID='65 DBI',T=53,F=818.687/
&RAMP ID='65 DBI',T=54,F=824.393/
&RAMP ID='65 DBI',T=55,F=813.657/
&RAMP ID='65 DBI',T=56,F=809.228/
&RAMP ID='65 DBI',T=57,F=800.244/
&RAMP ID='65 DBI',T=58,F=802.308/
&RAMP ID='65 DBI',T=59,F=809.748/
&RAMP ID='65 DBI',T=60,F=823.118/
&RAMP ID='65 DBI',T=61,F=832.199/
&RAMP ID='65 DBI',T=62,F=834.818/
&RAMP ID='65 DBI',T=63,F=826.661/
&RAMP ID='65 DBI',T=64,F=827.975/
&RAMP ID='65 DBI',T=65,F=854.306/
&RAMP ID='65 DBI',T=66,F=856.854/
&RAMP ID='65 DBI',T=67,F=868.298/
&RAMP ID='65 DBI',T=68,F=860.250/
&RAMP ID='65 DBI',T=69,F=849.488/
&RAMP ID='65 DBI',T=70,F=844.239/
&RAMP ID='65 DBI',T=71,F=826.441/
&RAMP ID='65 DBI',T=72,F=820.065/
&RAMP ID='65 DBI',T=73,F=811.963/
&RAMP ID='65 DBI',T=74,F=833.137/
&RAMP ID='65 DBI',T=75,F=849.144/
&RAMP ID='65 DBI',T=76,F=835.579/
&RAMP ID='65 DBI',T=77,F=825.586/
&RAMP ID='65 DBI',T=78,F=834.966/
&RAMP ID='65 DBI',T=79,F=839.231/
&RAMP ID='65 DBI',T=80,F=868.217/
&RAMP ID='65 DBI',T=81,F=863.868/
&RAMP ID='65 DBI',T=82,F=841.964/
&RAMP ID='65 DBI',T=83,F=878.831/
&RAMP ID='65 DBI',T=84,F=903.092/
&RAMP ID='65 DBI',T=85,F=904.695/
&RAMP ID='65 DBI',T=86,F=875.078/
&RAMP ID='65 DBI',T=87,F=861.916/
&RAMP ID='65 DBI',T=88,F=864.452/
&RAMP ID='65 DBI',T=89,F=865.106/
&RAMP ID='65 DBI',T=90,F=871.662/
&RAMP ID='65 DBI',T=91,F=881.824/
&RAMP ID='65 DBI',T=92,F=881.314/
&RAMP ID='65 DBI',T=93,F=886.480/
&RAMP ID='65 DBI',T=94,F=892.947/
&RAMP ID='65 DBI',T=95,F=904.481/
&RAMP ID='65 DBI',T=96,F=937.928/
&RAMP ID='65 DBI',T=97,F=951.631/
&RAMP ID='65 DBI',T=98,F=944.304/
&RAMP ID='65 DBI',T=99,F=920.617/
&RAMP ID='65 DBI',T=100,F=939.783/
&RAMP ID='65 DBI',T=101,F=961.094/
&RAMP ID='65 DBI',T=102,F=936.077/
&RAMP ID='65 DBI',T=103,F=904.554/
&RAMP ID='65 DBI',T=104,F=896.102/
&RAMP ID='65 DBI',T=105,F=910.859/
&RAMP ID='65 DBI',T=106,F=907.696/
&RAMP ID='65 DBI',T=107,F=901.094/
&RAMP ID='65 DBI',T=108,F=908.844/
&RAMP ID='65 DBI',T=109,F=927.612/
&RAMP ID='65 DBI',T=110,F=940.336/
&RAMP ID='65 DBI',T=111,F=961.253/
&RAMP ID='65 DBI',T=112,F=967.914/
&RAMP ID='65 DBI',T=113,F=915.172/
&RAMP ID='65 DBI',T=114,F=883.021/
&RAMP ID='65 DBI',T=115,F=906.997/
&RAMP ID='65 DBI',T=116,F=940.135/
&RAMP ID='65 DBI',T=117,F=944.606/
&RAMP ID='65 DBI',T=118,F=987.173/
&RAMP ID='65 DBI',T=119,F=985.066/
&RAMP ID='65 DBI',T=120,F=972.418/
&RAMP ID='65 DBI',T=121,F=971.850/
&RAMP ID='65 DBI',T=122,F=946.115/
&RAMP ID='65 DBI',T=123,F=937.571/
&RAMP ID='65 DBI',T=124,F=963.032/
&RAMP ID='65 DBI',T=125,F=982.932/
&RAMP ID='65 DBI',T=126,F=988.786/
&RAMP ID='65 DBI',T=127,F=983.732/
&RAMP ID='65 DBI',T=128,F=958.414/
&RAMP ID='65 DBI',T=129,F=961.676/
&RAMP ID='65 DBI',T=130,F=953.375/
&RAMP ID='65 DBI',T=131,F=966.233/
&RAMP ID='65 DBI',T=132,F=999.055/
&RAMP ID='65 DBI',T=133,F=1002.537/
&RAMP ID='65 DBI',T=134,F=1043.242/
&RAMP ID='65 DBI',T=135,F=1069.117/
&RAMP ID='65 DBI',T=136,F=1048.148/
&RAMP ID='65 DBI',T=137,F=1020.561/
&RAMP ID='65 DBI',T=138,F=1012.197/
&RAMP ID='65 DBI',T=139,F=1019.495/
&RAMP ID='65 DBI',T=140,F=1004.944/
&RAMP ID='65 DBI',T=141,F=1019.610/
&RAMP ID='65 DBI',T=142,F=1037.321/
&RAMP ID='65 DBI',T=143,F=1039.924/
&RAMP ID='65 DBI',T=144,F=1045.414/
&RAMP ID='65 DBI',T=145,F=1081.875/
&RAMP ID='65 DBI',T=146,F=1083.940/
&RAMP ID='65 DBI',T=147,F=1060.301/
&RAMP ID='65 DBI',T=148,F=1048.658/
&RAMP ID='65 DBI',T=149,F=1066.671/
&RAMP ID='65 DBI',T=150,F=1098.548/
&RAMP ID='65 DBI',T=151,F=1054.931/
&RAMP ID='65 DBI',T=152,F=1038.517/
&RAMP ID='65 DBI',T=153,F=1111.423/
&RAMP ID='65 DBI',T=154,F=1147.613/
&RAMP ID='65 DBI',T=155,F=1142.457/
&RAMP ID='65 DBI',T=156,F=1095.100/
&RAMP ID='65 DBI',T=157,F=1086.668/
&RAMP ID='65 DBI',T=158,F=1108.567/
&RAMP ID='65 DBI',T=159,F=1110.336/
&RAMP ID='65 DBI',T=160,F=1119.990/
&RAMP ID='65 DBI',T=161,F=1135.392/
&RAMP ID='65 DBI',T=162,F=1139.025/
&RAMP ID='65 DBI',T=163,F=1136.003/
&RAMP ID='65 DBI',T=164,F=1148.858/
&RAMP ID='65 DBI',T=165,F=1215.141/
&RAMP ID='65 DBI',T=166,F=1160.260/
&RAMP ID='65 DBI',T=167,F=1136.871/
&RAMP ID='65 DBI',T=168,F=1148.482/
&RAMP ID='65 DBI',T=169,F=1168.008/
&RAMP ID='65 DBI',T=170,F=1212.504/
&RAMP ID='65 DBI',T=171,F=1244.608/
&RAMP ID='65 DBI',T=172,F=1217.956/
&RAMP ID='65 DBI',T=173,F=1259.311/
&RAMP ID='65 DBI',T=174,F=1321.645/
&RAMP ID='65 DBI',T=175,F=1317.393/
&RAMP ID='65 DBI',T=176,F=1340.809/
&RAMP ID='65 DBI',T=177,F=1381.394/
&RAMP ID='65 DBI',T=178,F=1319.297/
&RAMP ID='65 DBI',T=179,F=1308.909/
&RAMP ID='65 DBI',T=180,F=1278.072/
&RAMP ID='65 DBI',T=181,F=1208.710/
&RAMP ID='65 DBI',T=182,F=1307.633/
&RAMP ID='65 DBI',T=183,F=1383.157/
&RAMP ID='65 DBI',T=184,F=1377.510/
&RAMP ID='65 DBI',T=185,F=1352.620/
&RAMP ID='65 DBI',T=186,F=1225.029/
&RAMP ID='65 DBI',T=187,F=1136.810/
&RAMP ID='65 DBI',T=188,F=1204.494/
&RAMP ID='65 DBI',T=189,F=1136.501/
&RAMP ID='65 DBI',T=190,F=954.011/
&RAMP ID='65 DBI',T=191,F=925.234/
&RAMP ID='65 DBI',T=192,F=865.172/
&RAMP ID='65 DBI',T=193,F=753.772/
&RAMP ID='65 DBI',T=194,F=752.211/
&RAMP ID='65 DBI',T=195,F=697.613/
&RAMP ID='65 DBI',T=196,F=584.766/
&RAMP ID='65 DBI',T=197,F=527.370/
&RAMP ID='65 DBI',T=198,F=478.764/
&RAMP ID='65 DBI',T=199,F=406.884/
&RAMP ID='65 DBI',T=200,F=344.931/
&RAMP ID='65 DBI',T=201,F=315.771/
&RAMP ID='65 DBI',T=202,F=272.295/
&RAMP ID='65 DBI',T=203,F=225.683/
&RAMP ID='65 DBI',T=204,F=203.188/
&RAMP ID='65 DBI',T=205,F=176.789/
&RAMP ID='65 DBI',T=206,F=140.692/
&RAMP ID='65 DBI',T=207,F=128.457/
&RAMP ID='65 DBI',T=208,F=115.591/
&RAMP ID='65 DBI',T=209,F=91.749/
&RAMP ID='65 DBI',T=210,F=81.795/
&RAMP ID='65 DBI',T=211,F=70.756/
&RAMP ID='65 DBI',T=212,F=55.058/
&RAMP ID='65 DBI',T=213,F=49.322/
&RAMP ID='65 DBI',T=214,F=42.444/
&RAMP ID='65 DBI',T=215,F=32.031/
&RAMP ID='65 DBI',T=216,F=24.733/
&RAMP ID='65 DBI',T=217,F=21.544/
&RAMP ID='65 DBI',T=218,F=17.185/
&RAMP ID='65 DBI',T=219,F=12.866/
&RAMP ID='65 DBI',T=220,F=11.628/
&RAMP ID='65 DBI',T=221,F=10.056/
&RAMP ID='65 DBI',T=222,F=7.694/
&RAMP ID='65 DBI',T=223,F=6.738/
&RAMP ID='65 DBI',T=224,F=5.764/
&RAMP ID='65 DBI',T=225,F=4.803/
&RAMP ID='65 DBI',T=226,F=4.675/
&RAMP ID='65 DBI',T=227,F=4.449/
&RAMP ID='65 DBI',T=228,F=4.059/
&RAMP ID='65 DBI',T=229,F=3.921/
&RAMP ID='65 DBI',T=230,F=3.654/
&RAMP ID='65 DBI',T=231,F=3.178/
&RAMP ID='65 DBI',T=232,F=2.963/
&RAMP ID='65 DBI',T=233,F=2.829/
&RAMP ID='65 DBI',T=234,F=2.545/
&RAMP ID='65 DBI',T=235,F=2.191/
&RAMP ID='65 DBI',T=236,F=2.050/
&RAMP ID='65 DBI',T=237,F=1.793/
&RAMP ID='65 DBI',T=238,F=1.460/
&RAMP ID='65 DBI',T=239,F=1.265/
&RAMP ID='65 DBI',T=240,F=1.848/
&RAMP ID='65 DBI',T=241,F=1.962/
&RAMP ID='65 DBI',T=242,F=2.020/
&RAMP ID='65 DBI',T=243,F=2.093/
&RAMP ID='65 DBI',T=244,F=2.051/
&RAMP ID='65 DBI',T=245,F=1.979/
&RAMP ID='65 DBI',T=246,F=1.913/
&RAMP ID='65 DBI',T=247,F=1.973/
&RAMP ID='65 DBI',T=248,F=2.027/
&RAMP ID='65 DBI',T=249,F=1.992/
&RAMP ID='65 DBI',T=250,F=1.984/
&RAMP ID='65 DBI',T=251,F=2.014/
&RAMP ID='65 DBI',T=252,F=2.035/
&RAMP ID='65 DBI',T=253,F=2.083/
&RAMP ID='65 DBI',T=254,F=2.203/
&RAMP ID='65 DBI',T=255,F=2.267/
&RAMP ID='65 DBI',T=256,F=1.879/
&RAMP ID='65 DBI',T=257,F=1.524/
&RAMP ID='65 DBI',T=258,F=1.458/
&RAMP ID='65 DBI',T=259,F=1.648/
&RAMP ID='65 DBI',T=260,F=1.731/
&RAMP ID='65 DBI',T=261,F=1.709/
&RAMP ID='65 DBI',T=262,F=1.680/
&RAMP ID='65 DBI',T=263,F=1.480/
&RAMP ID='65 DBI',T=264,F=1.316/
&RAMP ID='65 DBI',T=265,F=1.221/
&RAMP ID='65 DBI',T=266,F=1.164/
&RAMP ID='65 DBI',T=267,F=1.220/
&RAMP ID='65 DBI',T=268,F=1.211/
&RAMP ID='65 DBI',T=269,F=1.213/
&RAMP ID='65 DBI',T=270,F=1.152/
&RAMP ID='65 DBI',T=271,F=1.103/
&RAMP ID='65 DBI',T=272,F=1.085/
&RAMP ID='65 DBI',T=273,F=1.274/
&RAMP ID='65 DBI',T=274,F=1.437/
&RAMP ID='65 DBI',T=275,F=1.298/
&RAMP ID='65 DBI',T=276,F=1.244/
&RAMP ID='65 DBI',T=277,F=1.279/
&RAMP ID='65 DBI',T=278,F=1.248/
&RAMP ID='65 DBI',T=279,F=1.248/
&RAMP ID='65 DBI',T=280,F=1.256/
&RAMP ID='65 DBI',T=281,F=1.267/
&RAMP ID='65 DBI',T=282,F=1.030/
&RAMP ID='65 DBI',T=283,F=0.771/
&RAMP ID='65 DBI',T=284,F=0.755/
&RAMP ID='65 DBI',T=285,F=0.851/
&RAMP ID='65 DBI',T=286,F=0.886/
&RAMP ID='65 DBI',T=287,F=0.867/
&RAMP ID='65 DBI',T=288,F=0.901/
&RAMP ID='65 DBI',T=289,F=0.871/
&RAMP ID='65 DBI',T=290,F=0.827/
&RAMP ID='65 DBI',T=291,F=1.058/
&RAMP ID='65 DBI',T=292,F=1.291/
&RAMP ID='65 DBI',T=293,F=1.332/
&RAMP ID='65 DBI',T=294,F=1.331/
&RAMP ID='65 DBI',T=295,F=1.291/
&RAMP ID='65 DBI',T=296,F=1.245/
&RAMP ID='65 DBI',T=297,F=0.809/
&RAMP ID='65 DBI',T=298,F=0.517/
&RAMP ID='65 DBI',T=299,F=0.000/

&RAMP ID='25 FSRI',T=0,F=0.00/
&RAMP ID='25 FSRI',T=1,F=2.54/
&RAMP ID='25 FSRI',T=2,F=9.56/
&RAMP ID='25 FSRI',T=3,F=20.62/
&RAMP ID='25 FSRI',T=4,F=34.56/
&RAMP ID='25 FSRI',T=5,F=52.01/
&RAMP ID='25 FSRI',T=6,F=72.79/
&RAMP ID='25 FSRI',T=7,F=96.76/
&RAMP ID='25 FSRI',T=8,F=121.52/
&RAMP ID='25 FSRI',T=9,F=147.63/
&RAMP ID='25 FSRI',T=10,F=174.80/
&RAMP ID='25 FSRI',T=11,F=200.80/
&RAMP ID='25 FSRI',T=12,F=227.39/
&RAMP ID='25 FSRI',T=13,F=250.90/
&RAMP ID='25 FSRI',T=14,F=273.25/
&RAMP ID='25 FSRI',T=15,F=294.47/
&RAMP ID='25 FSRI',T=16,F=312.99/
&RAMP ID='25 FSRI',T=17,F=328.41/
&RAMP ID='25 FSRI',T=18,F=341.41/
&RAMP ID='25 FSRI',T=19,F=352.80/
&RAMP ID='25 FSRI',T=20,F=362.88/
&RAMP ID='25 FSRI',T=21,F=371.51/
&RAMP ID='25 FSRI',T=22,F=380.29/
&RAMP ID='25 FSRI',T=23,F=387.39/
&RAMP ID='25 FSRI',T=24,F=392.13/
&RAMP ID='25 FSRI',T=25,F=397.03/
&RAMP ID='25 FSRI',T=26,F=401.62/
&RAMP ID='25 FSRI',T=27,F=401.84/
&RAMP ID='25 FSRI',T=28,F=406.49/
&RAMP ID='25 FSRI',T=29,F=407.23/
&RAMP ID='25 FSRI',T=30,F=407.83/
&RAMP ID='25 FSRI',T=31,F=410.11/
&RAMP ID='25 FSRI',T=32,F=410.90/
&RAMP ID='25 FSRI',T=33,F=411.51/
&RAMP ID='25 FSRI',T=34,F=412.26/
&RAMP ID='25 FSRI',T=35,F=413.48/
&RAMP ID='25 FSRI',T=36,F=416.69/
&RAMP ID='25 FSRI',T=37,F=417.22/
&RAMP ID='25 FSRI',T=38,F=417.41/
&RAMP ID='25 FSRI',T=39,F=417.75/
&RAMP ID='25 FSRI',T=40,F=418.07/
&RAMP ID='25 FSRI',T=41,F=421.93/
&RAMP ID='25 FSRI',T=42,F=422.12/
&RAMP ID='25 FSRI',T=43,F=421.61/
&RAMP ID='25 FSRI',T=44,F=421.63/
&RAMP ID='25 FSRI',T=45,F=420.82/
&RAMP ID='25 FSRI',T=46,F=419.42/
&RAMP ID='25 FSRI',T=47,F=422.05/
&RAMP ID='25 FSRI',T=48,F=423.01/
&RAMP ID='25 FSRI',T=49,F=421.88/
&RAMP ID='25 FSRI',T=50,F=420.53/
&RAMP ID='25 FSRI',T=51,F=422.50/
&RAMP ID='25 FSRI',T=52,F=424.81/
&RAMP ID='25 FSRI',T=53,F=422.46/
&RAMP ID='25 FSRI',T=54,F=423.54/
&RAMP ID='25 FSRI',T=55,F=423.70/
&RAMP ID='25 FSRI',T=56,F=425.05/
&RAMP ID='25 FSRI',T=57,F=426.50/
&RAMP ID='25 FSRI',T=58,F=426.10/
&RAMP ID='25 FSRI',T=59,F=426.40/