An ISO 9701 compartment within a larger sealed domain has a fan blowing into it and several leaks.
Case 1 has a fan and a crack under the door.
Case 2 adds the extra leak to the great beyond.

&HEAD CHID='leak_test_2', TITLE='Test of Leakage and Fans in an ISO 9705 Compartment, SVN $Revision$' /

&MESH IJK=50,40,32, XB=-2.5, 2.5,-2.0, 2.0, 0.0, 3.2 /

&TIME T_END=300.0 /

&SURF ID='DOOR CRACK', LEAK_PATH=1,2 /
&SURF ID='VENT CRACK', LEAK_PATH=0,2 / <--- Case 2

&SURF ID='RETURN FAN', DUCT_PATH=2,1, VEL= 0.1, MAX_PRESSURE=1000. /
&SURF ID='SUPPLY FAN', DUCT_PATH=2,1, VEL=-0.1, MAX_PRESSURE=1000. /

&ZONE /  Declare the entire mesh to be pressure zone 1, but then over-ride with second ZONE declaration
&ZONE XB=-1.80, 1.80,-1.20, 1.20, 0.00, 2.40, LEAK_AREA(0)=0.0001, LEAK_AREA(1)=0.0001 /  LEAK_AREA(0)=0.0001 for Case 2

&OBST XB=-1.90, 1.90,-1.30,-1.20, 0.00, 2.50 / Left Wall
&OBST XB=-1.90, 1.90, 1.20, 1.30, 0.00, 2.50 / Right Wall
&OBST XB=-1.90,-1.80,-1.20, 1.20, 0.00, 2.50 / Back Wall
&OBST XB=-1.80, 1.80,-1.20, 1.20, 2.40, 2.50 / Ceiling
&OBST XB= 1.80, 1.90,-1.20,-0.50, 0.00, 2.50 / Panel to Left of Door
&OBST XB= 1.80, 1.90, 0.50, 1.20, 0.00, 2.50 / Panel to Right of Door
&OBST XB= 1.80, 1.90,-0.50, 0.50, 2.00, 2.50 / Soffit
&OBST XB= 1.80, 1.90,-0.50, 0.50, 0.10, 2.00, COLOR='GREEN' / Door

&VENT XB=-1.90,-1.90,-0.20, 0.20, 0.20, 0.60, COLOR='PINK',  SURF_ID='RETURN FAN' / 
&VENT XB=-1.80,-1.80,-0.20, 0.20, 1.00, 1.40, COLOR='RED',   SURF_ID='SUPPLY FAN' / 

&OBST XB= 1.80, 1.90,-0.50, 0.50, 0.00, 0.10, COLOR='BLUE', SURF_ID='DOOR CRACK' / 

&VENT XB= 0.00, 0.10,-0.10, 0.10, 2.40, 2.40, COLOR='GRAY', SURF_ID='VENT CRACK' / <---- Case 2

&SLCF PBY=0.0,QUANTITY='TEMPERATURE',VECTOR=.TRUE. /
&SLCF PBY=0.0,QUANTITY='DENSITY' /
&SLCF PBY=0.0,QUANTITY='PRESSURE' /

&DEVC ID='pres_1', XYZ=2.2,0.0,0.5, QUANTITY='PRESSURE' /
&DEVC ID='pres_2', XYZ=0.0,0.0,0.5, QUANTITY='PRESSURE' /

&TAIL /

