&HEAD CHID='200_once_noplenum_server9_cable',TITLE='datacenter 200 W/ft^2  once through no plenum server row 9 cable'/

&MESH XB= 0.0000 ,8.2296 ,0.0000 ,8.5344 ,0.9144 ,4.8768 , IJK = 81, 84, 39/
&MESH XB= 8.2296 ,16.4592 ,0.0000 ,8.5344 ,0.9144 ,4.8768 , IJK = 81, 84, 39/
&MESH XB= 0.0000 ,8.2296 ,8.5344 ,17.0688 ,0.9144 ,4.8768 , IJK = 81, 84, 39/
&MESH XB= 8.2296 ,16.4592 ,8.5344 ,17.0688 ,0.9144 ,4.8768 , IJK = 81, 84, 39/

&ZONE LEAK_AREA=0.3/
&RADI RADIATION=.FALSE./
&CLIP MINIMUM_TEMPERATURE=0./
&MISC CONSTANT_SPECIFIC_HEAT_RATIO=.TRUE.,STRATIFICATION=.FALSE./
&TIME T_END=360./
&DUMP NFRAMES=360/

&SPEC ID='SOOT',LUMPED_COMPONENT_ONLY=.TRUE./
&SPEC ID='SOOT1',SPEC_ID='SOOT'/
&SPEC ID='SOOT2',SPEC_ID='SOOT'/
&SPEC ID='SOOT3',SPEC_ID='SOOT'/
&SPEC ID='SOOT4',SPEC_ID='SOOT'/
&SPEC ID='SOOT5',SPEC_ID='SOOT'/
&SPEC ID='SOOT6',SPEC_ID='SOOT'/

&SURF ID='TILE',RGB=230,230,230,HEAT_TRANSFER_COEFFICIENT=0./
&SURF ID='RACK',RGB=100,100,230,HEAT_TRANSFER_COEFFICIENT=0./
&SURF ID='CRAH',RGB=230,100,100,HEAT_TRANSFER_COEFFICIENT=0./
&SURF ID='BUILDING',RGB=60,60,60,DEFAULT=.TRUE.,HEAT_TRANSFER_COEFFICIENT=0.,LEAK_PATH=1,0/
&SURF ID='ENCLOSURE',RGB=100,230,100,TRANSPARENCY=0.60,HEAT_TRANSFER_COEFFICIENT=0./
&SURF ID='CABLE',RGB=100,100,100,HEAT_TRANSFER_COEFFICIENT=0./

&OBST XB= 2.7432 ,3.0480 ,1.8288 ,7.9248 ,3.0480 ,3.1496 , SURF_ID='CABLE'/RACK1
&OBST XB= 4.8768 ,5.1816 ,1.8288 ,7.9248 ,3.0480 ,3.1496 , SURF_ID='CABLE'/RACK2
&OBST XB= 7.0104 ,7.3152 ,1.8288 ,7.9248 ,3.0480 ,3.1496 , SURF_ID='CABLE'/RACK3
&OBST XB= 9.1440 ,9.4488 ,1.8288 ,7.9248 ,3.0480 ,3.1496 , SURF_ID='CABLE'/RACK4
&OBST XB= 11.2776 ,11.5824 ,1.8288 ,7.9248 ,3.0480 ,3.1496 , SURF_ID='CABLE'/RACK5
&OBST XB= 13.4112 ,13.7160 ,1.8288 ,7.9248 ,3.0480 ,3.1496 , SURF_ID='CABLE'/RACK6
&OBST XB= 2.7432 ,3.0480 ,9.1440 ,15.2400 ,3.0480 ,3.1496 , SURF_ID='CABLE'/RACK7
&OBST XB= 4.8768 ,5.1816 ,9.1440 ,15.2400 ,3.0480 ,3.1496 , SURF_ID='CABLE'/RACK8
&OBST XB= 7.0104 ,7.3152 ,9.1440 ,15.2400 ,3.0480 ,3.1496 , SURF_ID='CABLE'/RACK9
&OBST XB= 9.1440 ,9.4488 ,9.1440 ,15.2400 ,3.0480 ,3.1496 , SURF_ID='CABLE'/RACK10
&OBST XB= 11.2776 ,11.5824 ,9.1440 ,15.2400 ,3.0480 ,3.1496 , SURF_ID='CABLE'/RACK11
&OBST XB= 13.4112 ,13.7160 ,9.1440 ,15.2400 ,3.0480 ,3.1496 , SURF_ID='CABLE'/RACK12

&PART  ID= 'FSCREENZ', DRAG_LAW= 'SCREEN', FREE_AREA_FRACTION=0.54, ORIENTATION=0,0,1,SURF_ID= 'FSCREEN', STATIC=.TRUE./
&PART  ID= 'CSCREENZ', DRAG_LAW= 'SCREEN', FREE_AREA_FRACTION=0.54, ORIENTATION=0,0,1,SURF_ID= 'CSCREEN', STATIC=.TRUE./

&SURF ID= 'FSCREEN', GEOMETRY= 'CYLINDRICAL', THICKNESS=3.26E-4,HEAT_TRANSFER_COEFFICIENT=0./
&SURF ID= 'CSCREEN', GEOMETRY= 'CYLINDRICAL', THICKNESS=2.9E-4,HEAT_TRANSFER_COEFFICIENT=0./

&OBST XB= 0.0000 ,0.9144 ,2.7432 ,5.7912 ,0.9144 ,3.9624 , SURF_ID='CRAH'/CRAH1
&OBST XB= 0.0000 ,0.9144 ,11.2776 ,14.3256 ,0.9144 ,3.9624 , SURF_ID='CRAH'/CRAH2
&OBST XB= 15.5448 ,16.4592 ,2.7432 ,5.7912 ,0.9144 ,3.9624 , SURF_ID='CRAH'/CRAH3
&OBST XB= 15.5448 ,16.4592 ,11.2776 ,14.3256 ,0.9144 ,3.9624 , SURF_ID='CRAH'/CRAH4
&OBST XB= 2.5908 ,5.6388 ,0.0000 ,0.9144 ,0.9144 ,3.9624 , SURF_ID='CRAH'/CRAH5
&OBST XB= 10.8204 ,13.8684 ,0.0000 ,0.9144 ,0.9144 ,3.9624 , SURF_ID='CRAH'/CRAH6
&OBST XB= 2.5908 ,5.6388 ,16.1544 ,17.0688 ,0.9144 ,3.9624 , SURF_ID='CRAH'/CRAH7
&OBST XB= 10.8204 ,13.8684 ,16.1544 ,17.0688 ,0.9144 ,3.9624 , SURF_ID='CRAH'/CRAH8


&OBST XB= 2.4384 ,3.3528 ,1.8288 ,7.9248 ,0.9144 ,2.7432 , SURF_ID='RACK'/RACK1
&OBST XB= 4.5720 ,5.4864 ,1.8288 ,7.9248 ,0.9144 ,2.7432 , SURF_ID='RACK'/RACK2
&OBST XB= 6.7056 ,7.6200 ,1.8288 ,7.9248 ,0.9144 ,2.7432 , SURF_ID='RACK'/RACK3
&OBST XB= 8.8392 ,9.7536 ,1.8288 ,7.9248 ,0.9144 ,2.7432 , SURF_ID='RACK'/RACK4
&OBST XB= 10.9728 ,11.8872 ,1.8288 ,7.9248 ,0.9144 ,2.7432 , SURF_ID='RACK'/RACK5
&OBST XB= 13.1064 ,14.0208 ,1.8288 ,7.9248 ,0.9144 ,2.7432 , SURF_ID='RACK'/RACK6
&OBST XB= 2.4384 ,3.3528 ,9.1440 ,15.2400 ,0.9144 ,2.7432 , SURF_ID='RACK'/RACK7
&OBST XB= 4.5720 ,5.4864 ,9.1440 ,15.2400 ,0.9144 ,2.7432 , SURF_ID='RACK'/RACK8
&OBST XB= 6.7056 ,7.6200 ,9.1440 ,15.2400 ,0.9144 ,2.7432 , SURF_ID='RACK'/RACK9
&OBST XB= 8.8392 ,9.7536 ,9.1440 ,15.2400 ,0.9144 ,2.7432 , SURF_ID='RACK'/RACK10
&OBST XB= 10.9728 ,11.8872 ,9.1440 ,15.2400 ,0.9144 ,2.7432 , SURF_ID='RACK'/RACK11
&OBST XB= 13.1064 ,14.0208 ,9.1440 ,15.2400 ,0.9144 ,2.7432 , SURF_ID='RACK'/RACK12


&VENT PBZ=0.9144, SURF_ID='TILE'/FLOOR

&OBST XB= 0.0000 ,16.4592 ,0.0000 ,17.0688 ,3.9624 ,4.0640 , SURF_ID='TILE'/CEILING

&OBST XB= 3.3528 ,4.5720 ,1.8288 ,7.9248 ,3.0480 ,3.9624 , SURF_ID='TILE'/COLD12
&OBST XB= 7.6200 ,8.8392 ,1.8288 ,7.9248 ,3.0480 ,3.9624 , SURF_ID='TILE'/COLD34
&OBST XB= 11.8872 ,13.1064 ,1.8288 ,7.9248 ,3.0480 ,3.9624 , SURF_ID='TILE'/COLD56
&OBST XB= 3.3528 ,4.5720 ,9.1440 ,15.2400 ,3.0480 ,3.9624 , SURF_ID='TILE'/COLD78
&OBST XB= 7.6200 ,8.8392 ,9.1440 ,15.2400 ,3.0480 ,3.9624 , SURF_ID='TILE'/COLD910
&OBST XB= 11.8872 ,13.1064 ,9.1440 ,15.2400 ,3.0480 ,3.9624 , SURF_ID='TILE'/COLD1112
&HOLE XB= 3.4544 ,4.4704 ,1.9304 ,7.8232 ,2.9464 ,4.0640/COLD12
&HOLE XB= 7.7216 ,8.7376 ,1.9304 ,7.8232 ,2.9464 ,4.0640/COLD34
&HOLE XB= 11.9888 ,13.0048 ,1.9304 ,7.8232 ,2.9464 ,4.0640/COLD56
&HOLE XB= 3.4544 ,4.4704 ,9.2456 ,15.1384 ,2.9464 ,4.0640/COLD78
&HOLE XB= 7.7216 ,8.7376 ,9.2456 ,15.1384 ,2.9464 ,4.0640/COLD910
&HOLE XB= 11.9888 ,13.0048 ,9.2456 ,15.1384 ,2.9464 ,4.0640/COLD1112
&INIT XB= 3.4544 ,4.4704 ,1.9304 ,7.8232 ,3.0734 ,3.1242, PART_ID='CSCREENZ', CELL_CENTERED=.TRUE.,N_PARTICLES_PER_CELL=1/COLD12
&INIT XB= 7.7216 ,8.7376 ,1.9304 ,7.8232 ,3.0734 ,3.1242, PART_ID='CSCREENZ', CELL_CENTERED=.TRUE.,N_PARTICLES_PER_CELL=1/COLD34
&INIT XB= 11.9888 ,13.0048 ,1.9304 ,7.8232 ,3.0734 ,3.1242, PART_ID='CSCREENZ', CELL_CENTERED=.TRUE.,N_PARTICLES_PER_CELL=1/COLD56
&INIT XB= 3.4544 ,4.4704 ,9.2456 ,15.1384 ,3.0734 ,3.1242, PART_ID='CSCREENZ', CELL_CENTERED=.TRUE.,N_PARTICLES_PER_CELL=1/COLD78
&INIT XB= 7.7216 ,8.7376 ,9.2456 ,15.1384 ,3.0734 ,3.1242, PART_ID='CSCREENZ', CELL_CENTERED=.TRUE.,N_PARTICLES_PER_CELL=1/COLD910
&INIT XB= 11.9888 ,13.0048 ,9.2456 ,15.1384 ,3.0734 ,3.1242, PART_ID='CSCREENZ', CELL_CENTERED=.TRUE.,N_PARTICLES_PER_CELL=1/COLD1112

&VENT XB= 0.0000 ,0.9144 ,2.7432 ,5.7912 ,4.0640 ,4.0640 , SURF_ID='HVAC', ID='CRAH1T'/CRAH1
&VENT XB= 0.0000 ,0.9144 ,11.2776 ,14.3256 ,4.0640 ,4.0640 , SURF_ID='HVAC', ID='CRAH2T'/CRAH2
&VENT XB= 15.5448 ,16.4592 ,2.7432 ,5.7912 ,4.0640 ,4.0640 , SURF_ID='HVAC', ID='CRAH3T'/CRAH3
&VENT XB= 15.5448 ,16.4592 ,11.2776 ,14.3256 ,4.0640 ,4.0640 , SURF_ID='HVAC', ID='CRAH4T'/CRAH4
&VENT XB= 10.8204 ,13.8684 ,0.0000 ,0.9144 ,4.0640 ,4.0640 , SURF_ID='HVAC', ID='CRAH6T'/CRAH6
&VENT XB= 2.5908 ,5.6388 ,16.1544 ,17.0688 ,4.0640 ,4.0640 , SURF_ID='HVAC', ID='CRAH7T'/CRAH7

&VENT XB= 0.9144 ,0.9144 ,2.7432 ,5.7912 ,0.9144 ,1.8288 , SURF_ID='HVAC', ID='CRAH1S'/CRAH1
&VENT XB= 0.9144 ,0.9144 ,11.2776 ,14.3256 ,0.9144 ,1.8288 , SURF_ID='HVAC', ID='CRAH2S'/CRAH2
&VENT XB= 15.5448 ,15.5448 ,2.7432 ,5.7912 ,0.9144 ,1.8288 , SURF_ID='HVAC', ID='CRAH3S'/CRAH3
&VENT XB= 15.5448 ,15.5448 ,11.2776 ,14.3256 ,0.9144 ,1.8288 , SURF_ID='HVAC', ID='CRAH4S'/CRAH4
&VENT XB= 10.8204 ,13.8684 ,0.9144 ,0.9144 ,0.9144 ,1.8288 , SURF_ID='HVAC', ID='CRAH6S'/CRAH6
&VENT XB= 2.5908 ,5.6388 ,16.1544 ,16.1544 ,0.9144 ,1.8288 , SURF_ID='HVAC', ID='CRAH7S'/CRAH7

&HVAC  TYPE_ID='NODE',DUCT_ID='CRAH1DT', VENT_ID='CRAH1T',ID='CRAH1T'/
&HVAC  TYPE_ID='NODE',DUCT_ID='CRAH2DT', VENT_ID='CRAH2T',ID='CRAH2T'/
&HVAC  TYPE_ID='NODE',DUCT_ID='CRAH3DT', VENT_ID='CRAH3T',ID='CRAH3T'/
&HVAC  TYPE_ID='NODE',DUCT_ID='CRAH4DT', VENT_ID='CRAH4T',ID='CRAH4T'/
&HVAC  TYPE_ID='NODE',DUCT_ID='CRAH6DT', VENT_ID='CRAH6T',ID='CRAH6T'/
&HVAC  TYPE_ID='NODE',DUCT_ID='CRAH7DT', VENT_ID='CRAH7T',ID='CRAH7T'/

&HVAC  TYPE_ID='NODE',DUCT_ID='CRAH1DB', ID='CRAH1O',AMBIENT=.TRUE./
&HVAC  TYPE_ID='NODE',DUCT_ID='CRAH2DB', ID='CRAH2O',AMBIENT=.TRUE./
&HVAC  TYPE_ID='NODE',DUCT_ID='CRAH3DB', ID='CRAH3O',AMBIENT=.TRUE./
&HVAC  TYPE_ID='NODE',DUCT_ID='CRAH4DB', ID='CRAH4O',AMBIENT=.TRUE./
&HVAC  TYPE_ID='NODE',DUCT_ID='CRAH6DB', ID='CRAH6O',AMBIENT=.TRUE./
&HVAC  TYPE_ID='NODE',DUCT_ID='CRAH7DB', ID='CRAH7O',AMBIENT=.TRUE./

&HVAC  TYPE_ID='DUCT',NODE_ID='CRAH1I', 'CRAH1T',ID='CRAH1DT',AREA=2.7871,MASS_FLOW=6.92781874833549/
&HVAC  TYPE_ID='DUCT',NODE_ID='CRAH2I', 'CRAH2T',ID='CRAH2DT',AREA=2.7871,MASS_FLOW=6.92781874833549/
&HVAC  TYPE_ID='DUCT',NODE_ID='CRAH3I', 'CRAH3T',ID='CRAH3DT',AREA=2.7871,MASS_FLOW=6.92781874833549/
&HVAC  TYPE_ID='DUCT',NODE_ID='CRAH4I', 'CRAH4T',ID='CRAH4DT',AREA=2.7871,MASS_FLOW=6.92781874833549/
&HVAC  TYPE_ID='DUCT',NODE_ID='CRAH6I', 'CRAH6T',ID='CRAH6DT',AREA=2.7871,MASS_FLOW=6.92781874833549/
&HVAC  TYPE_ID='DUCT',NODE_ID='CRAH7I', 'CRAH7T',ID='CRAH7DT',AREA=2.7871,MASS_FLOW=6.92781874833549/

&HVAC  TYPE_ID='NODE',DUCT_ID='CRAH1DB', VENT_ID='CRAH1S',ID='CRAH1S'/
&HVAC  TYPE_ID='NODE',DUCT_ID='CRAH2DB', VENT_ID='CRAH2S',ID='CRAH2S'/
&HVAC  TYPE_ID='NODE',DUCT_ID='CRAH3DB', VENT_ID='CRAH3S',ID='CRAH3S'/
&HVAC  TYPE_ID='NODE',DUCT_ID='CRAH4DB', VENT_ID='CRAH4S',ID='CRAH4S'/
&HVAC  TYPE_ID='NODE',DUCT_ID='CRAH6DB', VENT_ID='CRAH6S',ID='CRAH6S'/
&HVAC  TYPE_ID='NODE',DUCT_ID='CRAH7DB', VENT_ID='CRAH7S',ID='CRAH7S'/

&HVAC  TYPE_ID='NODE',DUCT_ID='CRAH1DT', ID='CRAH1I',AMBIENT=.TRUE./
&HVAC  TYPE_ID='NODE',DUCT_ID='CRAH2DT', ID='CRAH2I',AMBIENT=.TRUE./
&HVAC  TYPE_ID='NODE',DUCT_ID='CRAH3DT', ID='CRAH3I',AMBIENT=.TRUE./
&HVAC  TYPE_ID='NODE',DUCT_ID='CRAH4DT', ID='CRAH4I',AMBIENT=.TRUE./
&HVAC  TYPE_ID='NODE',DUCT_ID='CRAH6DT', ID='CRAH6I',AMBIENT=.TRUE./
&HVAC  TYPE_ID='NODE',DUCT_ID='CRAH7DT', ID='CRAH7I',AMBIENT=.TRUE./

&HVAC  TYPE_ID='DUCT',NODE_ID='CRAH1S', 'CRAH1O',ID='CRAH1DB',AREA=2.7871,MASS_FLOW=6.92781874833549/
&HVAC  TYPE_ID='DUCT',NODE_ID='CRAH2S', 'CRAH2O',ID='CRAH2DB',AREA=2.7871,MASS_FLOW=6.92781874833549/
&HVAC  TYPE_ID='DUCT',NODE_ID='CRAH3S', 'CRAH3O',ID='CRAH3DB',AREA=2.7871,MASS_FLOW=6.92781874833549/
&HVAC  TYPE_ID='DUCT',NODE_ID='CRAH4S', 'CRAH4O',ID='CRAH4DB',AREA=2.7871,MASS_FLOW=6.92781874833549/
&HVAC  TYPE_ID='DUCT',NODE_ID='CRAH6S', 'CRAH6O',ID='CRAH6DB',AREA=2.7871,MASS_FLOW=6.92781874833549/
&HVAC  TYPE_ID='DUCT',NODE_ID='CRAH7S', 'CRAH7O',ID='CRAH7DB',AREA=2.7871,MASS_FLOW=6.92781874833549/

&SURF ID='CAB S1',HEAT_TRANSFER_COEFFICIENT=0.,SPEC_ID(1)='SOOT1',RAMP_MF='SMOKE',MASS_FLUX(1)=1.000000/
&SURF ID='CAB S2',HEAT_TRANSFER_COEFFICIENT=0.,SPEC_ID(1)='SOOT2',RAMP_MF='SMOKE',MASS_FLUX(1)=1.000000/
&SURF ID='CAB S3',HEAT_TRANSFER_COEFFICIENT=0.,SPEC_ID(1)='SOOT3',RAMP_MF='SMOKE',MASS_FLUX(1)=1.000000/
&SURF ID='CAB S4',HEAT_TRANSFER_COEFFICIENT=0.,SPEC_ID(1)='SOOT4',RAMP_MF='SMOKE',MASS_FLUX(1)=1.000000/
&SURF ID='CAB S5',HEAT_TRANSFER_COEFFICIENT=0.,SPEC_ID(1)='SOOT5',RAMP_MF='SMOKE',MASS_FLUX(1)=1.000000/
&SURF ID='CAB S6',HEAT_TRANSFER_COEFFICIENT=0.,SPEC_ID(1)='SOOT6',RAMP_MF='SMOKE',MASS_FLUX(1)=1.000000/

&VENT XB=6.7056,6.7056,9.1440,9.3472,1.1176,1.3208,SURF_ID='CAB S1',COLOR='GRAY'/R9C1B2
&VENT XB=6.7056,6.7056,9.1440,9.3472,2.3368,2.5400,SURF_ID='CAB S2',COLOR='GRAY'/R9C1B8
&VENT XB=6.7056,6.7056,11.5824,11.7856,1.1176,1.3208,SURF_ID='CAB S3',COLOR='GRAY'/R9C5B2
&VENT XB=6.7056,6.7056,11.5824,11.7856,2.3368,2.5400,SURF_ID='CAB S4',COLOR='GRAY'/R9C5B8
&VENT XB=6.7056,6.7056,14.6304,14.8336,1.1176,1.3208,SURF_ID='CAB S5',COLOR='GRAY'/R9C10B2
&VENT XB=6.7056,6.7056,14.6304,14.8336,2.3368,2.5400,SURF_ID='CAB S6',COLOR='GRAY'/R9C10B8

&VENT XB=3.3528,3.3528,1.8288,2.4384,0.9144,1.1176,SURF_ID='HVAC',ID='R1C1B1-F',RGB=80,80,230/
&VENT XB=3.3528,3.3528,1.8288,2.4384,1.1176,1.3208,SURF_ID='HVAC',ID='R1C1B2-F',RGB=100,100,230/
&VENT XB=3.3528,3.3528,1.8288,2.4384,1.3208,1.5240,SURF_ID='HVAC',ID='R1C1B3-F',RGB=120,120,230/
&VENT XB=3.3528,3.3528,1.8288,2.4384,1.5240,1.7272,SURF_ID='HVAC',ID='R1C1B4-F',RGB=80,80,230/
&VENT XB=3.3528,3.3528,1.8288,2.4384,1.7272,1.9304,SURF_ID='HVAC',ID='R1C1B5-F',RGB=100,100,230/
&VENT XB=3.3528,3.3528,1.8288,2.4384,1.9304,2.1336,SURF_ID='HVAC',ID='R1C1B6-F',RGB=120,120,230/
&VENT XB=3.3528,3.3528,1.8288,2.4384,2.1336,2.3368,SURF_ID='HVAC',ID='R1C1B7-F',RGB=80,80,230/
&VENT XB=3.3528,3.3528,1.8288,2.4384,2.3368,2.5400,SURF_ID='HVAC',ID='R1C1B8-F',RGB=100,100,230/
&VENT XB=3.3528,3.3528,1.8288,2.4384,2.5400,2.7432,SURF_ID='HVAC',ID='R1C1B9-F',RGB=120,120,230/
&VENT XB=3.3528,3.3528,2.4384,3.0480,0.9144,1.1176,SURF_ID='HVAC',ID='R1C2B1-F',RGB=80,80,230/
&VENT XB=3.3528,3.3528,2.4384,3.0480,1.1176,1.3208,SURF_ID='HVAC',ID='R1C2B2-F',RGB=100,100,230/
&VENT XB=3.3528,3.3528,2.4384,3.0480,1.3208,1.5240,SURF_ID='HVAC',ID='R1C2B3-F',RGB=120,120,230/
&VENT XB=3.3528,3.3528,2.4384,3.0480,1.5240,1.7272,SURF_ID='HVAC',ID='R1C2B4-F',RGB=80,80,230/
&VENT XB=3.3528,3.3528,2.4384,3.0480,1.7272,1.9304,SURF_ID='HVAC',ID='R1C2B5-F',RGB=100,100,230/
&VENT XB=3.3528,3.3528,2.4384,3.0480,1.9304,2.1336,SURF_ID='HVAC',ID='R1C2B6-F',RGB=120,120,230/
&VENT XB=3.3528,3.3528,2.4384,3.0480,2.1336,2.3368,SURF_ID='HVAC',ID='R1C2B7-F',RGB=80,80,230/
&VENT XB=3.3528,3.3528,2.4384,3.0480,2.3368,2.5400,SURF_ID='HVAC',ID='R1C2B8-F',RGB=100,100,230/
&VENT XB=3.3528,3.3528,2.4384,3.0480,2.5400,2.7432,SURF_ID='HVAC',ID='R1C2B9-F',RGB=120,120,230/
&VENT XB=3.3528,3.3528,3.0480,3.6576,0.9144,1.1176,SURF_ID='HVAC',ID='R1C3B1-F',RGB=80,80,230/
&VENT XB=3.3528,3.3528,3.0480,3.6576,1.1176,1.3208,SURF_ID='HVAC',ID='R1C3B2-F',RGB=100,100,230/
&VENT XB=3.3528,3.3528,3.0480,3.6576,1.3208,1.5240,SURF_ID='HVAC',ID='R1C3B3-F',RGB=120,120,230/
&VENT XB=3.3528,3.3528,3.0480,3.6576,1.5240,1.7272,SURF_ID='HVAC',ID='R1C3B4-F',RGB=80,80,230/
&VENT XB=3.3528,3.3528,3.0480,3.6576,1.7272,1.9304,SURF_ID='HVAC',ID='R1C3B5-F',RGB=100,100,230/
&VENT XB=3.3528,3.3528,3.0480,3.6576,1.9304,2.1336,SURF_ID='HVAC',ID='R1C3B6-F',RGB=120,120,230/
&VENT XB=3.3528,3.3528,3.0480,3.6576,2.1336,2.3368,SURF_ID='HVAC',ID='R1C3B7-F',RGB=80,80,230/
&VENT XB=3.3528,3.3528,3.0480,3.6576,2.3368,2.5400,SURF_ID='HVAC',ID='R1C3B8-F',RGB=100,100,230/
&VENT XB=3.3528,3.3528,3.0480,3.6576,2.5400,2.7432,SURF_ID='HVAC',ID='R1C3B9-F',RGB=120,120,230/
&VENT XB=3.3528,3.3528,3.6576,4.2672,0.9144,1.1176,SURF_ID='HVAC',ID='R1C4B1-F',RGB=80,80,230/
&VENT XB=3.3528,3.3528,3.6576,4.2672,1.1176,1.3208,SURF_ID='HVAC',ID='R1C4B2-F',RGB=100,100,230/
&VENT XB=3.3528,3.3528,3.6576,4.2672,1.3208,1.5240,SURF_ID='HVAC',ID='R1C4B3-F',RGB=120,120,230/
&VENT XB=3.3528,3.3528,3.6576,4.2672,1.5240,1.7272,SURF_ID='HVAC',ID='R1C4B4-F',RGB=80,80,230/
&VENT XB=3.3528,3.3528,3.6576,4.2672,1.7272,1.9304,SURF_ID='HVAC',ID='R1C4B5-F',RGB=100,100,230/
&VENT XB=3.3528,3.3528,3.6576,4.2672,1.9304,2.1336,SURF_ID='HVAC',ID='R1C4B6-F',RGB=120,120,230/
&VENT XB=3.3528,3.3528,3.6576,4.2672,2.1336,2.3368,SURF_ID='HVAC',ID='R1C4B7-F',RGB=80,80,230/
&VENT XB=3.3528,3.3528,3.6576,4.2672,2.3368,2.5400,SURF_ID='HVAC',ID='R1C4B8-F',RGB=100,100,230/
&VENT XB=3.3528,3.3528,3.6576,4.2672,2.5400,2.7432,SURF_ID='HVAC',ID='R1C4B9-F',RGB=120,120,230/
&VENT XB=3.3528,3.3528,4.2672,4.8768,0.9144,1.1176,SURF_ID='HVAC',ID='R1C5B1-F',RGB=80,80,230/
&VENT XB=3.3528,3.3528,4.2672,4.8768,1.1176,1.3208,SURF_ID='HVAC',ID='R1C5B2-F',RGB=100,100,230/
&VENT XB=3.3528,3.3528,4.2672,4.8768,1.3208,1.5240,SURF_ID='HVAC',ID='R1C5B3-F',RGB=120,120,230/
&VENT XB=3.3528,3.3528,4.2672,4.8768,1.5240,1.7272,SURF_ID='HVAC',ID='R1C5B4-F',RGB=80,80,230/
&VENT XB=3.3528,3.3528,4.2672,4.8768,1.7272,1.9304,SURF_ID='HVAC',ID='R1C5B5-F',RGB=100,100,230/
&VENT XB=3.3528,3.3528,4.2672,4.8768,1.9304,2.1336,SURF_ID='HVAC',ID='R1C5B6-F',RGB=120,120,230/
&VENT XB=3.3528,3.3528,4.2672,4.8768,2.1336,2.3368,SURF_ID='HVAC',ID='R1C5B7-F',RGB=80,80,230/
&VENT XB=3.3528,3.3528,4.2672,4.8768,2.3368,2.5400,SURF_ID='HVAC',ID='R1C5B8-F',RGB=100,100,230/
&VENT XB=3.3528,3.3528,4.2672,4.8768,2.5400,2.7432,SURF_ID='HVAC',ID='R1C5B9-F',RGB=120,120,230/
&VENT XB=3.3528,3.3528,4.8768,5.4864,0.9144,1.1176,SURF_ID='HVAC',ID='R1C6B1-F',RGB=80,80,230/
&VENT XB=3.3528,3.3528,4.8768,5.4864,1.1176,1.3208,SURF_ID='HVAC',ID='R1C6B2-F',RGB=100,100,230/
&VENT XB=3.3528,3.3528,4.8768,5.4864,1.3208,1.5240,SURF_ID='HVAC',ID='R1C6B3-F',RGB=120,120,230/
&VENT XB=3.3528,3.3528,4.8768,5.4864,1.5240,1.7272,SURF_ID='HVAC',ID='R1C6B4-F',RGB=80,80,230/
&VENT XB=3.3528,3.3528,4.8768,5.4864,1.7272,1.9304,SURF_ID='HVAC',ID='R1C6B5-F',RGB=100,100,230/
&VENT XB=3.3528,3.3528,4.8768,5.4864,1.9304,2.1336,SURF_ID='HVAC',ID='R1C6B6-F',RGB=120,120,230/
&VENT XB=3.3528,3.3528,4.8768,5.4864,2.1336,2.3368,SURF_ID='HVAC',ID='R1C6B7-F',RGB=80,80,230/
&VENT XB=3.3528,3.3528,4.8768,5.4864,2.3368,2.5400,SURF_ID='HVAC',ID='R1C6B8-F',RGB=100,100,230/
&VENT XB=3.3528,3.3528,4.8768,5.4864,2.5400,2.7432,SURF_ID='HVAC',ID='R1C6B9-F',RGB=120,120,230/
&VENT XB=3.3528,3.3528,5.4864,6.0960,0.9144,1.1176,SURF_ID='HVAC',ID='R1C7B1-F',RGB=80,80,230/
&VENT XB=3.3528,3.3528,5.4864,6.0960,1.1176,1.3208,SURF_ID='HVAC',ID='R1C7B2-F',RGB=100,100,230/
&VENT XB=3.3528,3.3528,5.4864,6.0960,1.3208,1.5240,SURF_ID='HVAC',ID='R1C7B3-F',RGB=120,120,230/
&VENT XB=3.3528,3.3528,5.4864,6.0960,1.5240,1.7272,SURF_ID='HVAC',ID='R1C7B4-F',RGB=80,80,230/
&VENT XB=3.3528,3.3528,5.4864,6.0960,1.7272,1.9304,SURF_ID='HVAC',ID='R1C7B5-F',RGB=100,100,230/
&VENT XB=3.3528,3.3528,5.4864,6.0960,1.9304,2.1336,SURF_ID='HVAC',ID='R1C7B6-F',RGB=120,120,230/
&VENT XB=3.3528,3.3528,5.4864,6.0960,2.1336,2.3368,SURF_ID='HVAC',ID='R1C7B7-F',RGB=80,80,230/
&VENT XB=3.3528,3.3528,5.4864,6.0960,2.3368,2.5400,SURF_ID='HVAC',ID='R1C7B8-F',RGB=100,100,230/
&VENT XB=3.3528,3.3528,5.4864,6.0960,2.5400,2.7432,SURF_ID='HVAC',ID='R1C7B9-F',RGB=120,120,230/
&VENT XB=3.3528,3.3528,6.0960,6.7056,0.9144,1.1176,SURF_ID='HVAC',ID='R1C8B1-F',RGB=80,80,230/
&VENT XB=3.3528,3.3528,6.0960,6.7056,1.1176,1.3208,SURF_ID='HVAC',ID='R1C8B2-F',RGB=100,100,230/
&VENT XB=3.3528,3.3528,6.0960,6.7056,1.3208,1.5240,SURF_ID='HVAC',ID='R1C8B3-F',RGB=120,120,230/
&VENT XB=3.3528,3.3528,6.0960,6.7056,1.5240,1.7272,SURF_ID='HVAC',ID='R1C8B4-F',RGB=80,80,230/
&VENT XB=3.3528,3.3528,6.0960,6.7056,1.7272,1.9304,SURF_ID='HVAC',ID='R1C8B5-F',RGB=100,100,230/
&VENT XB=3.3528,3.3528,6.0960,6.7056,1.9304,2.1336,SURF_ID='HVAC',ID='R1C8B6-F',RGB=120,120,230/
&VENT XB=3.3528,3.3528,6.0960,6.7056,2.1336,2.3368,SURF_ID='HVAC',ID='R1C8B7-F',RGB=80,80,230/
&VENT XB=3.3528,3.3528,6.0960,6.7056,2.3368,2.5400,SURF_ID='HVAC',ID='R1C8B8-F',RGB=100,100,230/
&VENT XB=3.3528,3.3528,6.0960,6.7056,2.5400,2.7432,SURF_ID='HVAC',ID='R1C8B9-F',RGB=120,120,230/
&VENT XB=3.3528,3.3528,6.7056,7.3152,0.9144,1.1176,SURF_ID='HVAC',ID='R1C9B1-F',RGB=80,80,230/
&VENT XB=3.3528,3.3528,6.7056,7.3152,1.1176,1.3208,SURF_ID='HVAC',ID='R1C9B2-F',RGB=100,100,230/
&VENT XB=3.3528,3.3528,6.7056,7.3152,1.3208,1.5240,SURF_ID='HVAC',ID='R1C9B3-F',RGB=120,120,230/
&VENT XB=3.3528,3.3528,6.7056,7.3152,1.5240,1.7272,SURF_ID='HVAC',ID='R1C9B4-F',RGB=80,80,230/
&VENT XB=3.3528,3.3528,6.7056,7.3152,1.7272,1.9304,SURF_ID='HVAC',ID='R1C9B5-F',RGB=100,100,230/
&VENT XB=3.3528,3.3528,6.7056,7.3152,1.9304,2.1336,SURF_ID='HVAC',ID='R1C9B6-F',RGB=120,120,230/
&VENT XB=3.3528,3.3528,6.7056,7.3152,2.1336,2.3368,SURF_ID='HVAC',ID='R1C9B7-F',RGB=80,80,230/
&VENT XB=3.3528,3.3528,6.7056,7.3152,2.3368,2.5400,SURF_ID='HVAC',ID='R1C9B8-F',RGB=100,100,230/
&VENT XB=3.3528,3.3528,6.7056,7.3152,2.5400,2.7432,SURF_ID='HVAC',ID='R1C9B9-F',RGB=120,120,230/
&VENT XB=3.3528,3.3528,7.3152,7.9248,0.9144,1.1176,SURF_ID='HVAC',ID='R1C10B1-F',RGB=80,80,230/
&VENT XB=3.3528,3.3528,7.3152,7.9248,1.1176,1.3208,SURF_ID='HVAC',ID='R1C10B2-F',RGB=100,100,230/
&VENT XB=3.3528,3.3528,7.3152,7.9248,1.3208,1.5240,SURF_ID='HVAC',ID='R1C10B3-F',RGB=120,120,230/
&VENT XB=3.3528,3.3528,7.3152,7.9248,1.5240,1.7272,SURF_ID='HVAC',ID='R1C10B4-F',RGB=80,80,230/
&VENT XB=3.3528,3.3528,7.3152,7.9248,1.7272,1.9304,SURF_ID='HVAC',ID='R1C10B5-F',RGB=100,100,230/
&VENT XB=3.3528,3.3528,7.3152,7.9248,1.9304,2.1336,SURF_ID='HVAC',ID='R1C10B6-F',RGB=120,120,230/
&VENT XB=3.3528,3.3528,7.3152,7.9248,2.1336,2.3368,SURF_ID='HVAC',ID='R1C10B7-F',RGB=80,80,230/
&VENT XB=3.3528,3.3528,7.3152,7.9248,2.3368,2.5400,SURF_ID='HVAC',ID='R1C10B8-F',RGB=100,100,230/
&VENT XB=3.3528,3.3528,7.3152,7.9248,2.5400,2.7432,SURF_ID='HVAC',ID='R1C10B9-F',RGB=120,120,230/
&VENT XB=4.5720,4.5720,1.8288,2.4384,0.9144,1.1176,SURF_ID='HVAC',ID='R2C1B1-F',RGB=80,80,230/
&VENT XB=4.5720,4.5720,1.8288,2.4384,1.1176,1.3208,SURF_ID='HVAC',ID='R2C1B2-F',RGB=100,100,230/
&VENT XB=4.5720,4.5720,1.8288,2.4384,1.3208,1.5240,SURF_ID='HVAC',ID='R2C1B3-F',RGB=120,120,230/
&VENT XB=4.5720,4.5720,1.8288,2.4384,1.5240,1.7272,SURF_ID='HVAC',ID='R2C1B4-F',RGB=80,80,230/
&VENT XB=4.5720,4.5720,1.8288,2.4384,1.7272,1.9304,SURF_ID='HVAC',ID='R2C1B5-F',RGB=100,100,230/
&VENT XB=4.5720,4.5720,1.8288,2.4384,1.9304,2.1336,SURF_ID='HVAC',ID='R2C1B6-F',RGB=120,120,230/
&VENT XB=4.5720,4.5720,1.8288,2.4384,2.1336,2.3368,SURF_ID='HVAC',ID='R2C1B7-F',RGB=80,80,230/
&VENT XB=4.5720,4.5720,1.8288,2.4384,2.3368,2.5400,SURF_ID='HVAC',ID='R2C1B8-F',RGB=100,100,230/
&VENT XB=4.5720,4.5720,1.8288,2.4384,2.5400,2.7432,SURF_ID='HVAC',ID='R2C1B9-F',RGB=120,120,230/
&VENT XB=4.5720,4.5720,2.4384,3.0480,0.9144,1.1176,SURF_ID='HVAC',ID='R2C2B1-F',RGB=80,80,230/
&VENT XB=4.5720,4.5720,2.4384,3.0480,1.1176,1.3208,SURF_ID='HVAC',ID='R2C2B2-F',RGB=100,100,230/
&VENT XB=4.5720,4.5720,2.4384,3.0480,1.3208,1.5240,SURF_ID='HVAC',ID='R2C2B3-F',RGB=120,120,230/
&VENT XB=4.5720,4.5720,2.4384,3.0480,1.5240,1.7272,SURF_ID='HVAC',ID='R2C2B4-F',RGB=80,80,230/
&VENT XB=4.5720,4.5720,2.4384,3.0480,1.7272,1.9304,SURF_ID='HVAC',ID='R2C2B5-F',RGB=100,100,230/
&VENT XB=4.5720,4.5720,2.4384,3.0480,1.9304,2.1336,SURF_ID='HVAC',ID='R2C2B6-F',RGB=120,120,230/
&VENT XB=4.5720,4.5720,2.4384,3.0480,2.1336,2.3368,SURF_ID='HVAC',ID='R2C2B7-F',RGB=80,80,230/
&VENT XB=4.5720,4.5720,2.4384,3.0480,2.3368,2.5400,SURF_ID='HVAC',ID='R2C2B8-F',RGB=100,100,230/
&VENT XB=4.5720,4.5720,2.4384,3.0480,2.5400,2.7432,SURF_ID='HVAC',ID='R2C2B9-F',RGB=120,120,230/
&VENT XB=4.5720,4.5720,3.0480,3.6576,0.9144,1.1176,SURF_ID='HVAC',ID='R2C3B1-F',RGB=80,80,230/
&VENT XB=4.5720,4.5720,3.0480,3.6576,1.1176,1.3208,SURF_ID='HVAC',ID='R2C3B2-F',RGB=100,100,230/
&VENT XB=4.5720,4.5720,3.0480,3.6576,1.3208,1.5240,SURF_ID='HVAC',ID='R2C3B3-F',RGB=120,120,230/
&VENT XB=4.5720,4.5720,3.0480,3.6576,1.5240,1.7272,SURF_ID='HVAC',ID='R2C3B4-F',RGB=80,80,230/
&VENT XB=4.5720,4.5720,3.0480,3.6576,1.7272,1.9304,SURF_ID='HVAC',ID='R2C3B5-F',RGB=100,100,230/
&VENT XB=4.5720,4.5720,3.0480,3.6576,1.9304,2.1336,SURF_ID='HVAC',ID='R2C3B6-F',RGB=120,120,230/
&VENT XB=4.5720,4.5720,3.0480,3.6576,2.1336,2.3368,SURF_ID='HVAC',ID='R2C3B7-F',RGB=80,80,230/
&VENT XB=4.5720,4.5720,3.0480,3.6576,2.3368,2.5400,SURF_ID='HVAC',ID='R2C3B8-F',RGB=100,100,230/
&VENT XB=4.5720,4.5720,3.0480,3.6576,2.5400,2.7432,SURF_ID='HVAC',ID='R2C3B9-F',RGB=120,120,230/
&VENT XB=4.5720,4.5720,3.6576,4.2672,0.9144,1.1176,SURF_ID='HVAC',ID='R2C4B1-F',RGB=80,80,230/
&VENT XB=4.5720,4.5720,3.6576,4.2672,1.1176,1.3208,SURF_ID='HVAC',ID='R2C4B2-F',RGB=100,100,230/
&VENT XB=4.5720,4.5720,3.6576,4.2672,1.3208,1.5240,SURF_ID='HVAC',ID='R2C4B3-F',RGB=120,120,230/
&VENT XB=4.5720,4.5720,3.6576,4.2672,1.5240,1.7272,SURF_ID='HVAC',ID='R2C4B4-F',RGB=80,80,230/
&VENT XB=4.5720,4.5720,3.6576,4.2672,1.7272,1.9304,SURF_ID='HVAC',ID='R2C4B5-F',RGB=100,100,230/
&VENT XB=4.5720,4.5720,3.6576,4.2672,1.9304,2.1336,SURF_ID='HVAC',ID='R2C4B6-F',RGB=120,120,230/
&VENT XB=4.5720,4.5720,3.6576,4.2672,2.1336,2.3368,SURF_ID='HVAC',ID='R2C4B7-F',RGB=80,80,230/
&VENT XB=4.5720,4.5720,3.6576,4.2672,2.3368,2.5400,SURF_ID='HVAC',ID='R2C4B8-F',RGB=100,100,230/
&VENT XB=4.5720,4.5720,3.6576,4.2672,2.5400,2.7432,SURF_ID='HVAC',ID='R2C4B9-F',RGB=120,120,230/
&VENT XB=4.5720,4.5720,4.2672,4.8768,0.9144,1.1176,SURF_ID='HVAC',ID='R2C5B1-F',RGB=80,80,230/
&VENT XB=4.5720,4.5720,4.2672,4.8768,1.1176,1.3208,SURF_ID='HVAC',ID='R2C5B2-F',RGB=100,100,230/
&VENT XB=4.5720,4.5720,4.2672,4.8768,1.3208,1.5240,SURF_ID='HVAC',ID='R2C5B3-F',RGB=120,120,230/
&VENT XB=4.5720,4.5720,4.2672,4.8768,1.5240,1.7272,SURF_ID='HVAC',ID='R2C5B4-F',RGB=80,80,230/
&VENT XB=4.5720,4.5720,4.2672,4.8768,1.7272,1.9304,SURF_ID='HVAC',ID='R2C5B5-F',RGB=100,100,230/
&VENT XB=4.5720,4.5720,4.2672,4.8768,1.9304,2.1336,SURF_ID='HVAC',ID='R2C5B6-F',RGB=120,120,230/
&VENT XB=4.5720,4.5720,4.2672,4.8768,2.1336,2.3368,SURF_ID='HVAC',ID='R2C5B7-F',RGB=80,80,230/
&VENT XB=4.5720,4.5720,4.2672,4.8768,2.3368,2.5400,SURF_ID='HVAC',ID='R2C5B8-F',RGB=100,100,230/
&VENT XB=4.5720,4.5720,4.2672,4.8768,2.5400,2.7432,SURF_ID='HVAC',ID='R2C5B9-F',RGB=120,120,230/
&VENT XB=4.5720,4.5720,4.8768,5.4864,0.9144,1.1176,SURF_ID='HVAC',ID='R2C6B1-F',RGB=80,80,230/
&VENT XB=4.5720,4.5720,4.8768,5.4864,1.1176,1.3208,SURF_ID='HVAC',ID='R2C6B2-F',RGB=100,100,230/
&VENT XB=4.5720,4.5720,4.8768,5.4864,1.3208,1.5240,SURF_ID='HVAC',ID='R2C6B3-F',RGB=120,120,230/
&VENT XB=4.5720,4.5720,4.8768,5.4864,1.5240,1.7272,SURF_ID='HVAC',ID='R2C6B4-F',RGB=80,80,230/
&VENT XB=4.5720,4.5720,4.8768,5.4864,1.7272,1.9304,SURF_ID='HVAC',ID='R2C6B5-F',RGB=100,100,230/
&VENT XB=4.5720,4.5720,4.8768,5.4864,1.9304,2.1336,SURF_ID='HVAC',ID='R2C6B6-F',RGB=120,120,230/
&VENT XB=4.5720,4.5720,4.8768,5.4864,2.1336,2.3368,SURF_ID='HVAC',ID='R2C6B7-F',RGB=80,80,230/
&VENT XB=4.5720,4.5720,4.8768,5.4864,2.3368,2.5400,SURF_ID='HVAC',ID='R2C6B8-F',RGB=100,100,230/
&VENT XB=4.5720,4.5720,4.8768,5.4864,2.5400,2.7432,SURF_ID='HVAC',ID='R2C6B9-F',RGB=120,120,230/
&VENT XB=4.5720,4.5720,5.4864,6.0960,0.9144,1.1176,SURF_ID='HVAC',ID='R2C7B1-F',RGB=80,80,230/
&VENT XB=4.5720,4.5720,5.4864,6.0960,1.1176,1.3208,SURF_ID='HVAC',ID='R2C7B2-F',RGB=100,100,230/
&VENT XB=4.5720,4.5720,5.4864,6.0960,1.3208,1.5240,SURF_ID='HVAC',ID='R2C7B3-F',RGB=120,120,230/
&VENT XB=4.5720,4.5720,5.4864,6.0960,1.5240,1.7272,SURF_ID='HVAC',ID='R2C7B4-F',RGB=80,80,230/
&VENT XB=4.5720,4.5720,5.4864,6.0960,1.7272,1.9304,SURF_ID='HVAC',ID='R2C7B5-F',RGB=100,100,230/
&VENT XB=4.5720,4.5720,5.4864,6.0960,1.9304,2.1336,SURF_ID='HVAC',ID='R2C7B6-F',RGB=120,120,230/
&VENT XB=4.5720,4.5720,5.4864,6.0960,2.1336,2.3368,SURF_ID='HVAC',ID='R2C7B7-F',RGB=80,80,230/
&VENT XB=4.5720,4.5720,5.4864,6.0960,2.3368,2.5400,SURF_ID='HVAC',ID='R2C7B8-F',RGB=100,100,230/
&VENT XB=4.5720,4.5720,5.4864,6.0960,2.5400,2.7432,SURF_ID='HVAC',ID='R2C7B9-F',RGB=120,120,230/
&VENT XB=4.5720,4.5720,6.0960,6.7056,0.9144,1.1176,SURF_ID='HVAC',ID='R2C8B1-F',RGB=80,80,230/
&VENT XB=4.5720,4.5720,6.0960,6.7056,1.1176,1.3208,SURF_ID='HVAC',ID='R2C8B2-F',RGB=100,100,230/
&VENT XB=4.5720,4.5720,6.0960,6.7056,1.3208,1.5240,SURF_ID='HVAC',ID='R2C8B3-F',RGB=120,120,230/
&VENT XB=4.5720,4.5720,6.0960,6.7056,1.5240,1.7272,SURF_ID='HVAC',ID='R2C8B4-F',RGB=80,80,230/
&VENT XB=4.5720,4.5720,6.0960,6.7056,1.7272,1.9304,SURF_ID='HVAC',ID='R2C8B5-F',RGB=100,100,230/
&VENT XB=4.5720,4.5720,6.0960,6.7056,1.9304,2.1336,SURF_ID='HVAC',ID='R2C8B6-F',RGB=120,120,230/
&VENT XB=4.5720,4.5720,6.0960,6.7056,2.1336,2.3368,SURF_ID='HVAC',ID='R2C8B7-F',RGB=80,80,230/
&VENT XB=4.5720,4.5720,6.0960,6.7056,2.3368,2.5400,SURF_ID='HVAC',ID='R2C8B8-F',RGB=100,100,230/
&VENT XB=4.5720,4.5720,6.0960,6.7056,2.5400,2.7432,SURF_ID='HVAC',ID='R2C8B9-F',RGB=120,120,230/
&VENT XB=4.5720,4.5720,6.7056,7.3152,0.9144,1.1176,SURF_ID='HVAC',ID='R2C9B1-F',RGB=80,80,230/
&VENT XB=4.5720,4.5720,6.7056,7.3152,1.1176,1.3208,SURF_ID='HVAC',ID='R2C9B2-F',RGB=100,100,230/
&VENT XB=4.5720,4.5720,6.7056,7.3152,1.3208,1.5240,SURF_ID='HVAC',ID='R2C9B3-F',RGB=120,120,230/
&VENT XB=4.5720,4.5720,6.7056,7.3152,1.5240,1.7272,SURF_ID='HVAC',ID='R2C9B4-F',RGB=80,80,230/
&VENT XB=4.5720,4.5720,6.7056,7.3152,1.7272,1.9304,SURF_ID='HVAC',ID='R2C9B5-F',RGB=100,100,230/
&VENT XB=4.5720,4.5720,6.7056,7.3152,1.9304,2.1336,SURF_ID='HVAC',ID='R2C9B6-F',RGB=120,120,230/
&VENT XB=4.5720,4.5720,6.7056,7.3152,2.1336,2.3368,SURF_ID='HVAC',ID='R2C9B7-F',RGB=80,80,230/
&VENT XB=4.5720,4.5720,6.7056,7.3152,2.3368,2.5400,SURF_ID='HVAC',ID='R2C9B8-F',RGB=100,100,230/
&VENT XB=4.5720,4.5720,6.7056,7.3152,2.5400,2.7432,SURF_ID='HVAC',ID='R2C9B9-F',RGB=120,120,230/
&VENT XB=4.5720,4.5720,7.3152,7.9248,0.9144,1.1176,SURF_ID='HVAC',ID='R2C10B1-F',RGB=80,80,230/
&VENT XB=4.5720,4.5720,7.3152,7.9248,1.1176,1.3208,SURF_ID='HVAC',ID='R2C10B2-F',RGB=100,100,230/
&VENT XB=4.5720,4.5720,7.3152,7.9248,1.3208,1.5240,SURF_ID='HVAC',ID='R2C10B3-F',RGB=120,120,230/
&VENT XB=4.5720,4.5720,7.3152,7.9248,1.5240,1.7272,SURF_ID='HVAC',ID='R2C10B4-F',RGB=80,80,230/
&VENT XB=4.5720,4.5720,7.3152,7.9248,1.7272,1.9304,SURF_ID='HVAC',ID='R2C10B5-F',RGB=100,100,230/
&VENT XB=4.5720,4.5720,7.3152,7.9248,1.9304,2.1336,SURF_ID='HVAC',ID='R2C10B6-F',RGB=120,120,230/
&VENT XB=4.5720,4.5720,7.3152,7.9248,2.1336,2.3368,SURF_ID='HVAC',ID='R2C10B7-F',RGB=80,80,230/
&VENT XB=4.5720,4.5720,7.3152,7.9248,2.3368,2.5400,SURF_ID='HVAC',ID='R2C10B8-F',RGB=100,100,230/
&VENT XB=4.5720,4.5720,7.3152,7.9248,2.5400,2.7432,SURF_ID='HVAC',ID='R2C10B9-F',RGB=120,120,230/
&VENT XB=7.6200,7.6200,1.8288,2.4384,0.9144,1.1176,SURF_ID='HVAC',ID='R3C1B1-F',RGB=80,80,230/
&VENT XB=7.6200,7.6200,1.8288,2.4384,1.1176,1.3208,SURF_ID='HVAC',ID='R3C1B2-F',RGB=100,100,230/
&VENT XB=7.6200,7.6200,1.8288,2.4384,1.3208,1.5240,SURF_ID='HVAC',ID='R3C1B3-F',RGB=120,120,230/
&VENT XB=7.6200,7.6200,1.8288,2.4384,1.5240,1.7272,SURF_ID='HVAC',ID='R3C1B4-F',RGB=80,80,230/
&VENT XB=7.6200,7.6200,1.8288,2.4384,1.7272,1.9304,SURF_ID='HVAC',ID='R3C1B5-F',RGB=100,100,230/
&VENT XB=7.6200,7.6200,1.8288,2.4384,1.9304,2.1336,SURF_ID='HVAC',ID='R3C1B6-F',RGB=120,120,230/
&VENT XB=7.6200,7.6200,1.8288,2.4384,2.1336,2.3368,SURF_ID='HVAC',ID='R3C1B7-F',RGB=80,80,230/
&VENT XB=7.6200,7.6200,1.8288,2.4384,2.3368,2.5400,SURF_ID='HVAC',ID='R3C1B8-F',RGB=100,100,230/
&VENT XB=7.6200,7.6200,1.8288,2.4384,2.5400,2.7432,SURF_ID='HVAC',ID='R3C1B9-F',RGB=120,120,230/
&VENT XB=7.6200,7.6200,2.4384,3.0480,0.9144,1.1176,SURF_ID='HVAC',ID='R3C2B1-F',RGB=80,80,230/
&VENT XB=7.6200,7.6200,2.4384,3.0480,1.1176,1.3208,SURF_ID='HVAC',ID='R3C2B2-F',RGB=100,100,230/
&VENT XB=7.6200,7.6200,2.4384,3.0480,1.3208,1.5240,SURF_ID='HVAC',ID='R3C2B3-F',RGB=120,120,230/
&VENT XB=7.6200,7.6200,2.4384,3.0480,1.5240,1.7272,SURF_ID='HVAC',ID='R3C2B4-F',RGB=80,80,230/