&HEAD CHID='test_mpi_120', TITLE='ST Fire Natural Gas 05mm grid 80kW' /
&TIME T_END=30.0 /
&MULT ID='mesh array', DX=0.4, DY=0.48, DZ=0.6, I_UPPER = 5, J_UPPER = 4, K_UPPER = 3 /
&MESH IJK=80,96,80, XB=0.0,0.4,0.0,0.48,0.0,0.6, MULT_ID='mesh array' /
MESH IJK=480,480,480, XB=0.0,2.4,0.0,2.4,0.0,2.4  /

&MISC MPI_TIMEOUT=900. /

&SURF ID='FIRE', HRRPUA=860.0, COLOR='RED'  /
&OBST XB=1.05,1.35,1.05,1.35,0.22,0.3, SURF_ID6='INERT', 'INERT','INERT','INERT','INERT','FIRE' /
&SURF ID='CSB', COLOR='BLUE' /
&OBST XB=0.6,1.8,0.6,1.8,0.0,0.22, SURF_ID6='INERT', 'INERT','INERT','INERT','INERT','CSB' /

&REAC FUEL='METHANE'  /
&VENT MB='XMIN', SURF_ID='OPEN' /
&VENT MB='XMAX', SURF_ID='OPEN' /
&VENT MB='YMIN', SURF_ID='OPEN' /
&VENT MB='YMAX', SURF_ID='OPEN' /
&VENT MB='ZMAX', SURF_ID='OPEN' /

&DEVC XYZ= 1.2,1.2,0.4 QUANTITY='TEMPERATURE', ID='T01' /
&DEVC XYZ= 1.2,1.2,0.5 QUANTITY='TEMPERATURE', ID='T02' /
&DEVC XYZ= 1.2,1.2,0.6 QUANTITY='TEMPERATURE', ID='T03' /
&DEVC XYZ= 1.2,1.2,0.7 QUANTITY='TEMPERATURE', ID='T04' /
&DEVC XYZ= 1.2,1.2,0.8 QUANTITY='TEMPERATURE', ID='T05' /
&DEVC XYZ= 1.2,1.2,0.9 QUANTITY='TEMPERATURE', ID='T06' /
&DEVC XYZ= 1.2,1.2,1.0 QUANTITY='TEMPERATURE', ID='T07' /
&DEVC XYZ= 1.2,1.2,1.1 QUANTITY='TEMPERATURE', ID='T08' /
&DEVC XYZ= 1.2,1.2,0.8 QUANTITY='TEMPERATURE', ID='T09' /
&DEVC XYZ= 1.2,1.2,0.9 QUANTITY='TEMPERATURE', ID='T10' /
&DEVC XYZ= 1.2,1.2,1.0 QUANTITY='TEMPERATURE', ID='T11' /
&DEVC XYZ= 1.2,1.2,1.1 QUANTITY='TEMPERATURE', ID='T12' /

&DEVC XYZ= 1.2,1.2,0.4 QUANTITY='THERMOCOUPLE', ID='TC01' /
&DEVC XYZ= 1.2,1.2,0.5 QUANTITY='THERMOCOUPLE', ID='TC02' /
&DEVC XYZ= 1.2,1.2,0.6 QUANTITY='THERMOCOUPLE', ID='TC03' /
&DEVC XYZ= 1.2,1.2,0.7 QUANTITY='THERMOCOUPLE', ID='TC04' /
&DEVC XYZ= 1.2,1.2,0.8 QUANTITY='THERMOCOUPLE', ID='TC05' /
&DEVC XYZ= 1.2,1.2,0.9 QUANTITY='THERMOCOUPLE', ID='TC06' /
&DEVC XYZ= 1.2,1.2,1.0 QUANTITY='THERMOCOUPLE', ID='TC07' /
&DEVC XYZ= 1.2,1.2,1.1 QUANTITY='THERMOCOUPLE', ID='TC08' /
&DEVC XYZ= 1.2,1.2,0.8 QUANTITY='THERMOCOUPLE', ID='TC09' /
&DEVC XYZ= 1.2,1.2,0.9 QUANTITY='THERMOCOUPLE', ID='TC10' /
&DEVC XYZ= 1.2,1.2,1.0 QUANTITY='THERMOCOUPLE', ID='TC11' /
&DEVC XYZ= 1.2,1.2,1.1 QUANTITY='THERMOCOUPLE', ID='TC12' /

&DEVC XYZ= 1.2,0.2,0.8 QUANTITY='RADIATIVE HEAT FLUX GAS', ORIENTATION=0,1,0 ID='HF1' /
&DEVC XYZ= 1.2,0.2,0.8 QUANTITY='GAUGE HEAT FLUX', IOR= 2, ID='GHF1'/	
&OBST XB= 1.1,1.3,0.2,0.2,0.7,0.9 /
&SLCF PBY= 1.2, QUANTITY='TEMPERATURE'/
&TAIL /
 
