&HEAD CHID='particle_color' /
&MESH IJK=10,10,10, XB=0.0,1.0,0.0,1.0,0.0,1.0, MULT_ID='mesh' /
&MULT ID='mesh', DX=1.0, DY=1.0, DZ=1.0, I_UPPER=1, J_UPPER=0, K_UPPER=3 /  8 meshes
&TIME T_END=3. /
&MATL ID='stuff', DENSITY=1000., CONDUCTIVITY=0.1, SPECIFIC_HEAT=1. /
&PART ID='drops_100', SAMPLING_FACTOR=1, SURF_ID='T_100', INITIAL_TEMPERATURE=100., QUANTITIES='PARTICLE TEMPERATURE','PARTICLE DIAMETER' /
&PART ID='drops_200', SAMPLING_FACTOR=1, SURF_ID='T_200', INITIAL_TEMPERATURE=200., QUANTITIES='PARTICLE TEMPERATURE','PARTICLE DIAMETER' /
&PART ID='drops_300', SAMPLING_FACTOR=1, SURF_ID='T_300', INITIAL_TEMPERATURE=300., QUANTITIES='PARTICLE TEMPERATURE','PARTICLE DIAMETER' /
&PART ID='drops_400', SAMPLING_FACTOR=1, SURF_ID='T_400', INITIAL_TEMPERATURE=400., QUANTITIES='PARTICLE TEMPERATURE','PARTICLE DIAMETER' /
&PART ID='drops_500', SAMPLING_FACTOR=1, SURF_ID='T_500', INITIAL_TEMPERATURE=500., QUANTITIES='PARTICLE TEMPERATURE','PARTICLE DIAMETER' /
&PART ID='drops_600', SAMPLING_FACTOR=1, SURF_ID='T_600', INITIAL_TEMPERATURE=600., QUANTITIES='PARTICLE TEMPERATURE','PARTICLE DIAMETER' /
&PART ID='drops_700', SAMPLING_FACTOR=1, SURF_ID='T_700', INITIAL_TEMPERATURE=700., QUANTITIES='PARTICLE TEMPERATURE','PARTICLE DIAMETER' /
&SURF ID='T_100', GEOMETRY='SPHERICAL', RADIUS=0.001, TMP_FRONT=100., TMP_INNER=100., MATL_ID='stuff', HEAT_TRANSFER_COEFFICIENT=0.  /
&SURF ID='T_200', GEOMETRY='SPHERICAL', RADIUS=0.002, TMP_FRONT=200., TMP_INNER=200., MATL_ID='stuff', HEAT_TRANSFER_COEFFICIENT=0.  /
&SURF ID='T_300', GEOMETRY='SPHERICAL', RADIUS=0.003, TMP_FRONT=300., TMP_INNER=300., MATL_ID='stuff', HEAT_TRANSFER_COEFFICIENT=0.  /
&SURF ID='T_400', GEOMETRY='SPHERICAL', RADIUS=0.004, TMP_FRONT=400., TMP_INNER=400., MATL_ID='stuff', HEAT_TRANSFER_COEFFICIENT=0.  /
&SURF ID='T_500', GEOMETRY='SPHERICAL', RADIUS=0.005, TMP_FRONT=500., TMP_INNER=500., MATL_ID='stuff', HEAT_TRANSFER_COEFFICIENT=0.  /
&SURF ID='T_600', GEOMETRY='SPHERICAL', RADIUS=0.006, TMP_FRONT=600., TMP_INNER=600., MATL_ID='stuff', HEAT_TRANSFER_COEFFICIENT=0.  /
&SURF ID='T_700', GEOMETRY='SPHERICAL', RADIUS=0.007, TMP_FRONT=700., TMP_INNER=700., MATL_ID='stuff', HEAT_TRANSFER_COEFFICIENT=0.  /
&INIT XB=0.4,0.6,0.4,0.6,0.4,0.6, N_PARTICLES=10, PART_ID='drops_100' /
&INIT XB=1.4,1.6,0.4,0.6,0.4,0.6, N_PARTICLES=10, PART_ID='drops_200' /
&INIT XB=0.4,0.6,0.4,0.6,1.4,1.6, N_PARTICLES=10, PART_ID='drops_300' /
&INIT XB=1.4,1.6,0.4,0.6,1.4,1.6, N_PARTICLES=10, PART_ID='drops_400' /
&INIT XB=0.4,0.6,0.4,0.6,2.4,2.6, N_PARTICLES=10, PART_ID='drops_500' /
&INIT XB=1.4,1.6,0.4,0.6,2.4,2.6, N_PARTICLES=10, PART_ID='drops_600' /
&INIT XB=0.4,0.6,0.4,0.6,3.4,3.6, N_PARTICLES=10, PART_ID='drops_700' /
&TAIL /
