&HEAD CHID='spray_test2' /
&MESH IJK=18,12,32, XB=0.0,0.875,0.0,0.625,0.0,1.50, MULT_ID='mesh' /
&MULT ID='mesh', DX=0.875, DY=0.625, DZ=1.50, I_LOWER=3, I_UPPER=4, J_LOWER=2, J_UPPER=5, K_UPPER=1 /  16 meshes
&MISC EQUILIBRIUM_MODEL=.TRUE. /
&TIME T_BEGIN=-5., T_END=0., DT=0.005 /
&REAC FUEL='N-HEPTANE', CO_YIELD=0.006, SOOT_YIELD=0.015, CRITICAL_FLAME_TEMPERATURE=1560. /
&PART ID='heptane droplets', SAMPLING_FACTOR=1, INITIAL_TEMPERATURE=95., SPEC_ID='N-HEPTANE', DIAMETER=200., HEAT_OF_COMBUSTION=45000., QUANTITIES='PARTICLE TEMPERATURE','PARTICLE DIAMETER' /
&PROP ID='Bete P40', PART_ID='heptane droplets', FLOW_RATE=1.143, FLOW_TAU=3., PARTICLE_VELOCITY=8., SPRAY_ANGLE=0.,15. /
&SLCF PBX=3.6,QUANTITY='TEMPERATURE',CELL_CENTERED=.TRUE. /
&SLCF PBX=3.6,QUANTITY='INTEGRATED INTENSITY',CELL_CENTERED=.TRUE. /
&DEVC XYZ=3.60,1.80,1.00, PROP_ID='Bete P40', QUANTITY='TIME', SETPOINT=-60., ORIENTATION=0.,1.,0., ID='fuel_nozzle' /
TAIL /