ELEMENTS
 H   O    C   N  
END
SPECIES
C7H16     O2         N2        CO2      H2O
CO        H2         OH	       CH4      C2H2     
C2H4      H2O2       HO2
H         O          
CH3      CH3O 
CH2       CH2O       CH3O2     CH4O2    HCO
C7H15-1   C7H15-2    C7H15O2   C7H14O2H  C7H14O2HO2  C7KET12
C6H12     C5H11CHO   C5H11CO   C5H11     C4H9 
C3H7  C3H6  C3H5  C3H4
C2H3       C2H5     C2H6  
!CH3HCO    CH3CO      HCOOCH3   COOCH3
!N2O       NO         N      
NO        N
END
REACTIONS
 C7H16 + H             = C7H15-1 + H2         5.600E+07  2.0    7667.0!
 C7H16 + H             = C7H15-2 + H2         4.380E+07  2.0    4750.0!
 C7H16 + OH            = C7H15-1 + H2O        8.610E+09  1.10   1815.0!
 C7H16 + OH            = C7H15-2 + H2O        4.500E+09  1.30    690.5!
 C7H16 + HO2           = C7H15-1 + H2O2       1.120E+13  0.0   19300.0!
 C7H16 + HO2           = C7H15-2 + H2O2       1.650E+13  0.0   16950.0!
 C7H16 + O2            = C7H15-1 + HO2        2.500E+13  0.0   48810.0!
 C7H16 + O2            = C7H15-2 + HO2        2.000E+14  0.0   47380.0!
 C7H15-1 + O2          = C7H15O2              2.000E+12  0.0       0.0!
 C7H15-2 + O2          = C7H15O2              2.000E+12  0.0       0.0!
 C7H15O2               = C7H14O2H             6.000E+11  0.0   20380.0!
 C7H14O2H + O2         = C7H14O2HO2           4.600E+11  0.0       0.0!
 C7H14O2HO2            = C7KET12 + OH         1.000E+09  0.0    7480.0!
 C7KET12               = C5H11CHO + CH2O + O  1.050E+16  0.0  4.110E+4!  16
 C5H11CHO + O2         = C5H11CO + HO2        2.000E+13  0.5  4.220E+4!
 C5H11CHO + OH         = C5H11CO + H2O        1.000E+13  0.0  0.000E+0!
 C5H11CHO + H          = C5H11CO + H2         4.000E+13  0.0  4.200E+3!
 C5H11CHO + O          = C5H11CO + OH         5.000E+12  0.0  1.790E+3!
 C5H11CHO + HO2        = C5H11CO + H2O2       2.800E+12  0.0  1.360E+4!
 C5H11CHO + CH3        = C5H11CO + CH4        1.700E+12  0.0  8.440E+3!
 C5H11CHO + CH3O2      = C5H11CO + CH4O2      1.000E+12  0.0  9.500E+3!
 C5H11CO               = C5H11 + CO           1.000E+11  0.0  9.600E+3!
 C5H11                 = C2H4  + C3H7         3.200E+13  0.0   28300.0!
 C7H15-1               = C2H4  + C5H11        2.500E+13  0.0   28810.0!
 C7H15-2               = C4H9  + C3H6         2.200E+13  0.0   28100.0!
 C7H15-1               = C7H15-2              3.600E+16  0.0   80700.0!
 C4H9                  = C2H5 + C2H4          2.500E+13  0.0   28810.0!
 C3H7                  = C2H4 + CH3           9.600E+13  0.0   30950.0!
 C3H7                  = C3H6 + H             1.250E+14  0.0   36900.0!
 C3H7 + O2             = C3H6 + HO2           1.000E+12  0.0    4980.0!
 C3H6                  = C2H3 + CH3           3.150E+15  0.0   85500.0!
 C3H6 + H              = C3H5 + H2            5.000E+12  0.0    1500.0!
 C3H6 + CH3            = C3H5 + CH4           9.000E+12  0.0    8480.0!
 C3H5                  = C3H4 + H             4.000E+13  0.0   69760.0!
 C3H5 + H              = C3H4 + H2            1.000E+13  0.0       0.0!
 C3H5 + O2             = C3H4 + HO2           6.000E+11  0.0   10000.0!
 C3H4 + OH             = C2H3 + CH2O          1.000E+12  0.0       0.0!
 C3H4 + OH             = C2H4 + HCO           1.000E+12  0.0       0.0!
!
!C2H5  + O             = CH3HCO + H           5.300E+13  0.0       0.0!     23
!C2H4  + HO2           = HCOOCH3 + H          4.040E+09  0.0    -840. !     24
!C2H4  + HO2           = CH3HCO + OH          2.200E+13  0.0   17200.0!     25
!C2H4  + CH3O          = CH3HCO + CH3         3.000E+13  0.0     14500.0        !     26
!C2H4  + CH3O2         = CH3HCO + CH3O        7.000E+13  0.0     14500.0        !     27
!C2H3  + OH            = CH3HCO               3.000E+13  0.0       0.0!     28
!
!CH3HCO                = CH3     + HCO        7.080E+15  0.00  81760. !     28
!CH3HCO                = CH3CO   + H          5.000E+14  0.00  87860. !     29
!CH3HCO  + O2          = CH3CO   + HO2        2.000E+13  0.50  42200. !     30
!CH3HCO  + H           = CH3CO   + H2         4.100E+13  0.00   4200. !     31
!CH3HCO  + OH          = CH3CO   + H2O        1.000E+13  0.00      0. !     32
!CH3HCO  + O           = CH3CO   + OH         5.800E+12  0.00   1790. !     33
!CH3HCO  + CH3         = CH3CO   + CH4        1.700E+12  0.0    8440.0!     34
!CH3HCO  + CH2         = CH3CO   + CH3        1.660E+12  0.0    3510. !     35
!CH3HCO  + HO2         = CH3CO   + H2O2       1.700E+12  0.00  10700. !     36
!CH3HCO  + CH3O2       = CH3CO   + CH4O2      1.150E+11  0.0   10000.0!     37
!CH3CO + O             = CH3   + CO2          1.000E+13  0.00      0. !     38
!CH3CO + H             = CH3   + HCO          1.000E+14  0.0       0. !     39
!CH3CO + OH            = CH3   + CO  + OH     3.000E+13  0.0       0. !     40
!CH3CO + HO2           = CH3   + CO2 + OH     3.000E+13  0.0       0. !     42
!CH3CO + CH3           = C2H6  + CO           5.000E+13  0.00      0. !     43
!
!HCOOCH3               = HCO   + CH3O         3.200E+09  1.60  51800. !     44
!HCOOCH3               = CO2   + CH4          2.950E+09  0.00  24500. !     45
!HCOOCH3 + O           = COOCH3 + OH          5.300E+11  0.60   1470. !     46
!HCOOCH3 + H           = COOCH3 + H2          1.600E+08  1.60   1000. !     47
!HCOOCH3 + OH          = COOCH3 + H2O         1.200E+09  1.30   -150. !     48
!HCOOCH3 + HO2         = COOCH3 + H2O2        4.000E+12  0.00   6100. !     49
!HCOOCH3 + CH3         = COOCH3 + CH4         1.000E-02  4.50   1800. !     50
!COOCH3                = CH3    + CO2         8.730E+42 -8.62  22400. !     51
! 
 CH3O  + CO            = CH3   + CO2          1.570E+14  0.00  11800. !CGS  52
 CH3O  + M             = CH2O  + H     + M    1.000E+14  0.00  25000. !CGS  53
 CH3O  + H             = CH2O  + H2           2.000E+13  0.00      0. !CGS  54
 CH3O  + OH            = CH2O  + H2O          1.000E+13  0.00      0. !CGS  55
 CH3O  + O             = CH2O  + OH           1.000E+13  0.00      0. !CGS  56
 CH3O  + O2            = CH2O  + HO2          1.200E+11  0.00   2600. !CGS  57   10
 CH3   + HO2           = CH3O  + OH           5.000E+13  0.00      0. !CGS  58
 CH3   + O2            = CH3O  + O            4.670E+13  0.00  30000. !CGS  59
 CH3   + O2            = CH2O  + OH           3.800E+11  0.00   9000. !CGS  60 4.8  9000
 CH3   + O2            = CH3O2                3.020E+59 -15.0  17204. !CGS  61 3.02
 CH3O2 + HO2           = CH4O2 + O2           4.630E+11   0.0  -2583. !CGS 24
 CH3O2 + CH4           = CH4O2 + CH3          1.810E+11   0.0  18480. !CGS 25
 CH3O2 + CH3           = CH3O  + CH3O         2.410E+13   0.0      0. !CGS 26  2.410E+13
 CH3O2 + O             = CH3O  + O2           3.610E+13   0.0      0. !CGS 27
 CH3O2 + H             = CH3O  + OH           9.640E+13   0.0      0. !CGS 28
 CH3O2 + CH2O          = CH4O2 + HCO          1.000E+12   0.0  11665. !CGS 29
 CH3O2 + C2H6          = CH4O2 + C2H5         2.950E+11   0.0  14944. !CGS 30
 CH3O2 + CH3O2         = CH3O  + CH3O + O2    2.800E+11   0.0   -780. !CGS 31  11
 CH3O2 + H2O2          = CH4O2 + HO2          2.400E+12   0.0  10000. !CGS 32
 CH4O2                 = CH3O  + OH           3.000E+16   0.0  42920. !CGS 33  6.000E+16
 CH3O2 + C2H4          = C2H3  + CH4O2        7.100E+11   0.0  17110. !CGS 34
 CH4O2 + OH            = CH3O2 + H2O          1.000E+13   0.0   -258. !CGS 35  ! 8.2
 CH4O2 + O             = CH3O2 + OH           2.000E+13   0.0   4750. !
 CH3   + O             = CH2O  + H            8.000E+13  0.00      0. !CGS 36
 CH3   + OH            = CH2   + H2O          7.500E+06  2.00   5000. !CGS 37
 CH3   + OH            = CH2O  + H2           4.000E+12  0.00      0. !CGS 38
 CH3O  + H             = CH3   + OH           1.000E+14  0.00      0. !CGS 39
 CO    + O     + M     = CO2   + M            6.170E+14  0.00   3000. !CGS 40
 CO    + OH            = CO2   + H            3.510E+07  1.30   -758. !CGS 41
 CO    + O2            = CO2   + O            1.600E+13  0.00  41000. !CGS 42
 HO2   + CO            = CO2   + OH           5.800E+13  0.00  22930. !CGS 43
!
 H2    + O2            = OH    + OH           1.700E+13  0.00  47780. !CGS 44
 H2    + OH            = H2O   + H            1.170E+09  1.30   3626. !CGS 45
 O     + OH            = O2    + H            4.000E+14 -0.50      0. !CGS 46
 O     + H2            = OH    + H            5.060E+04  2.67   6290. !CGS 47
 H     + HO2           = O     + H2O          3.100E+10  0.00   3590. !CGS 48
 O     + OH    + M     = HO2   + M            1.000E+16  0.00      0. !CGS 49
       H2O/21./  CO2/5.0/  H2/3.3/  CO/2.0/
 H     + O2    + M     = HO2   + M            3.600E+17 -0.72      0. !CGS 50
       H2O/21./  CO2/5.0/  H2/3.3/  CO/2.0/   
 OH    + HO2           = H2O   + O2           7.500E+12  0.00      0. !CGS 51
 H     + HO2           = OH    + OH           1.700E+14  0.0     875. !CGS 52
 O     + HO2           = O2    + OH           1.400E+13  0.00   1073. !CGS 53
 OH    + OH            = O     + H2O          6.000E+08  1.30      0. !CGS 54
 H     + H     + M     = H2    + M            1.000E+18 -1.00      0. !CGS 55
       H2/0./ H2O/0./ CO2/0./ 
 H     + H     + H2    = H2    + H2           9.200E+16 -0.60      0. !CGS 56
 H     + H     + H2O   = H2    + H2O          6.000E+19 -1.25      0. !CGS 57
 H     + H     + CO2   = H2    + CO2          5.490E+20 -2.00      0. !CGS 58
 H     + OH    + M     = H2O   + M            1.600E+22 -2.00      0. !CGS 59
 H     + O     + M     = OH    + M            6.200E+16 -0.60      0. !CGS 60
 O     + O     + M     = O2    + M            1.890E+13  0.00  -1788. !CGS 61
 H     + HO2           = H2    + O2           1.250E+13  0.00      0. !CGS 62
 HO2   + HO2           = H2O2  + O2           2.000E+12  0.00      0. !CGS 63
 H2O2  + M             = OH    + OH    + M    4.300E+16  0.00  45500. !CGS 64
       H2O/21./  CO2/5.0/  H2/3.3/  CO/2.0/ 
 H2O2  + H             = HO2   + H2           1.600E+12  0.00   3800. !CGS 65
 H2O2  + OH            = H2O   + HO2          1.000E+13  0.00   1800. !CGS 66
 H2O2  + H             = H2O   + OH           1.000E+13  0.00   3590. !CGS
 H2O2  + O             = H2O   + O2           8.400E+11  0.00   4260. !CGS
 H2O2  + O             = OH    + HO2          2.000E+13  0.00   5900. !CGS
 H2    + HO2           = H2O   + OH           6.500E+11  0.00  18800. !CGS
!
!CO2   + N             = NO    + CO           1.900E+11  0.00   3400. !CGS 67
!N2O   + O             = N2    + O2           1.400E+12  0.00  10810. !CGS 68
!N2O   + O             = NO    + NO           2.900E+13  0.00  23150. !CGS 69
!N2O   + H             = N2    + OH           4.400E+14  0.00  18880. !CGS 70
!N2O   + OH            = N2    + HO2          2.000E+12  0.00  21060. !CGS
!N2O   + M             = N2    + O     + M    1.300E+11  0.00  59620. !CGS
!N     + NO            = N2    + O            3.270E+12  0.30      0. !CGS
!N     + O2            = NO    + O            6.400E+09  1.00   6280. !CGS
!N     + OH            = NO    + H            7.333E+13  0.00   1120. !CGS
!
 CH2O  + O2            = HCO   + HO2          6.200E+13  0.00  39000. !CGS
 CH2O  + O             = HCO   + OH           1.800E+13  0.00   3080. !CGS
 CH2O  + H             = HCO   + H2           2.190E+08  1.80   3000. !CGS
 CH2O  + OH            = HCO   + H2O          2.430E+10  1.20   -447. !CGS        09
 CH2O  + HO2           = HCO   + H2O2         3.000E+12  0.00   8000. !CGS        12
 CH2O  + M             = CO    + H2    + M    6.250E+15  0.00  69540. !CGS
 CH2O  + M             = HCO   + H     + M    4.000E+23 -1.66  91120. !CGS
!H2    + CO            = CH2O                 4.300E+07  1.50  79600. !CGS
 HCO   + HCO           = CH2O  + CO           3.010E+13  0.00      0. !CGS
 HCO   + OH            = H2O   + CO           1.000E+14  0.00      0. !CGS
 HCO   + H             = H2    + CO           1.190E+13  0.30      0. !CGS
 HCO   + O             = OH    + CO           3.000E+13  0.00      0. !CGS
 HCO   + O             = H     + CO2          3.000E+13  0.00      0. !CGS
 HCO   + O2            = HO2   + CO           3.300E+13 -0.40      0. !CGS
 HCO   + M             = H     + CO    + M    1.870E+17 -1.00  17000. !CGS
!HCO   + H     + M     = CH2O  + M            1.000E+12  0.48   -260. !CGS
 HCO   + HO2           = CO2   + OH    + H    3.000E+13  0.00      0. !CGS
 CH4   + O2            = CH3   + HO2          7.900E+13  0.00  56000. !CGS
!CH3   + HO2           = CH4   + O2           1.000E+12  0.00      0. !CGS
 CH4   + H             = CH3   + H2           6.600E+08  1.60  10840. !CGS
 CH4   + OH            = CH3   + H2O          1.600E+06  2.10   2460. !CGS
 CH4   + O             = CH3   + OH           1.020E+09  1.50   8604. !CGS   99
 CH4   + HO2           = CH3   + H2O2         1.000E+13  0.00  18700. !CGS  100
 CH4   + CH2           = CH3   + CH3          4.000E+12  0.00   -570. !CGS  101
 CH3   + CH2O          = CH4   + HCO          5.500E+03  2.80   6000. !CGS  102
 CH3   + HCO           = CH4   + CO           1.200E+14  0.00      0. !CGS  103
 CH3   + H             = CH4                  1.900E+36 -7.00   9050. !CGS  104
 CH3   + H             = CH2   + H2           9.000E+13  0.00  15100. !CGS  105
 CH3   + CH3O          = CH4   + CH2O         4.300E+14  0.00      0. !CGS  106  3.3
 CH3   + CH3           = C2H6                 2.700E+53 -12.0  19400. !CGS
 CH3   + CH3           = C2H5  + H            4.990E+12  .100  10600. !CGS
!CH2   + H2            = CH3   + H            5.000E+05  2.00   7230. !CGS     
 CH2   + OH            = CH2O  + H            2.500E+13  0.00      0. !CGS  107
 CH2   + O2            = HCO   + OH           4.300E+10  0.00   -500. !CGS  108
 CH2   + O2            = CO2   + H2           6.900E+11  0.00    500. !CGS  109
 CH2   + O2            = CO    + H2O          2.000E+10  0.00  -1000. !CGS  110
 CH2   + O2            = CH2O  + O            5.000E+13  0.00   9000. !CGS  111
 CH2   + O2            = CO2   + H     + H    1.600E+12  0.00   1000. !CGS
 CH2   + O2            = CO    + OH    + H    8.600E+10  0.00   -500. !
 CH2   + CH2           = C2H2  + H2           1.200E+13  0.0     800. !
 CH2   + CH2           = C2H2  + H     + H    1.200E+14  0.0     800. !
 CH2   + CO2           = CH2O  + CO           1.000E+11  0.00   1000. !CGS  112
 CH3   + HCO           = CH2O  + CH2          3.000E+13  0.00      0. !CGS  113
 CH3   + C2H4          = CH4   + C2H3         6.620E+00  3.70   9482. !CGS  114
 CH3   + CH3           = C2H4  + H2           1.000E+15  0.00  31000. !CGS  115
 CH3   + CH2           = C2H4  + H            3.000E+13  0.00   -570. !CGS  116
 C2H4  + H             = C2H3  + H2           1.100E+14  0.00   8500. !CGS  117
 C2H4  + O             = CH3   + HCO          1.600E+09  1.20    746. !CGS  118
 C2H4  + O             = CH2O  + CH2          3.000E+04  1.88    180. !CGS  119
 C2H4  + O             = C2H3  + OH           1.510E+07  1.91   3790. !CGS  120
 C2H4  + OH            = CH2O  + CH3          6.000E+13  0.0     960. !CGS  121  ! 13
 C2H4 +  HO2           = C2H3  + H2O2         7.100E+11  0.0   17110. !CGS  122
 C2H4  + OH            = C2H3  + H2O          8.020E+13  0.00   5955. !CGS  123  ! 6.02  5955
 C2H4  + M             = C2H2  + H2    + M    1.500E+15  0.00  55800. !CGS  124
 C2H4  + M             = C2H3  + H     + M    2.600E+17  0.0   96570. !CGS  125
 C2H4  + H             = C2H5                 2.600E+43 -9.25  52580. !CGS  126
 C2H6  + O2            = C2H5  + HO2          1.000E+13  0.00  48960. !CGS  127
 C2H5  + O2            = C2H4  + HO2          2.000E+10  0.0   -2200. !CGS  128
 C2H4  + O2            = C2H3  + HO2          4.200E+14  0.00  57590. !CGS  128  ! 14
 C2H4  + C2H4          = C2H5  + C2H3         5.000E+14  0.0   64700. !CGS  129  ! 14
 C2H5  + HO2           = C2H4  + H2O2         3.000E+11  0.00      0. !CGS  130
 C2H2  + O2            = HCO   + HCO          4.000E+12  0.00  28000. !CGS         2.0
 C2H2  + O             = CH2   + CO           1.020E+07  2.00   1900. !CGS  131
 C2H2  + H     + M     = C2H3  + M            5.540E+12  0.00   2410. !CGS  132
 C2H3  + H             = C2H2  + H2           4.000E+13  0.00      0. !CGS  133
 C2H3  + O2            = CH2O  + HCO          4.000E+12  0.00   -250. !CGS  134
 C2H3  + OH            = C2H2  + H2O          3.000E+13  0.00      0. !CGS  135
 C2H3  + CH2           = C2H2  + CH3          3.000E+13  0.00      0. !CGS  136
 C2H3  + HCO           = C2H4  + CO           6.034E+13  0.0       0. !CGS  137
 C2H3  + C2H3          = C2H2  + C2H4         1.450E+13  0.0       0.0
 C2H3  + O             = C2H2  + OH           1.000E+13  0.0       0.0
 C2H2  + OH            = CH3   + CO           4.830E-04  4.00  -2000. !CGS  138
 C2H3                  = C2H2  + H            4.600E+40 -8.80  46200.
 N+NO<=>N2+O                              3.500E+13     .000     330.00
 N+O2<=>NO+O                              2.650E+12     .000    6400.00
 N+OH<=>NO+H                              7.333E+13     .000    1120.00
END
