THERMO ALL
   298.000  1000.000  5000.000
NE                L10/92NE  1    0    0    0G   200.000  6000.000   1000.00    1
 0.25000000E 01 0.             0.             0.             0.                2
-0.74537500E 03 0.33553227E 01 0.25000000E 01 0.             0.                3
 0.             0.            -0.74537498E 03 0.33553227E 01 0.00000000E+00    4
C(S)              P 4/83C   1    0    0    0C   200.000  5000.000     12.01100 1
 0.14556924e+01 0.17170638e-02-0.69758410e-06 0.13528316e-09-0.96764905e-14    2
-0.69512804e+03-0.85256842e+01-0.31087207e+00 0.44035369e-02 0.19039412e-05    3
-0.63854697e-08 0.29896425e-11-0.10865079e+03 0.11138295e+01                   4
O                 L 1/90O   1   00   00   00G   200.000  3500.000  1000.000    1
 2.56942078E+00-8.59741137E-05 4.19484589E-08-1.00177799E-11 1.22833691E-15    2
 2.92175791E+04 4.78433864E+00 3.16826710E+00-3.27931884E-03 6.64306396E-06    3
-6.12806624E-09 2.11265971E-12 2.91222592E+04 2.05193346E+00 6.72540300E+03    4
O2                TPIS89O   2   00   00   00G   200.000  3500.000  1000.000    1
 3.28253784E+00 1.48308754E-03-7.57966669E-07 2.09470555E-10-2.16717794E-14    2
-1.08845772E+03 5.45323129E+00 3.78245636E+00-2.99673416E-03 9.84730201E-06    3
-9.68129509E-09 3.24372837E-12-1.06394356E+03 3.65767573E+00 8.68010400E+03    4
H                 L 7/88H   1   00   00   00G   200.000  3500.000   1000.00    1
 2.50000001E+00-2.30842973E-11 1.61561948E-14-4.73515235E-18 4.98197357E-22    2
 2.54736599E+04-4.46682914E-01 2.50000000E+00 7.05332819E-13-1.99591964E-15    3
 2.30081632E-18-9.27732332E-22 2.54736599E+04-4.46682853E-01 6.19742800E+03    4
H2                TPIS78H   2   00   00   00G   200.000  3500.000   1000.00    1
 3.33727920E+00-4.94024731E-05 4.99456778E-07-1.79566394E-10 2.00255376E-14    2
-9.50158922E+02-3.20502331E+00 2.34433112E+00 7.98052075E-03-1.94781510E-05    3
 2.01572094E-08-7.37611761E-12-9.17935173E+02 6.83010238E-01 8.46810200E+03    4
OH                RUS 78O   1H   1   00   00G   200.000  3500.000  1000.000    1
 3.09288767E+00 5.48429716E-04 1.26505228E-07-8.79461556E-11 1.17412376E-14    2
 3.85865700E+03 4.47669610E+00 3.99201543E+00-2.40131752E-03 4.61793841E-06    3
-3.88113333E-09 1.36411470E-12 3.61508056E+03-1.03925458E-01 8.81310600E+03    4
H2O               L 8/89H   2O   1   00   00G   200.000  3500.000  1000.000    1
 3.03399249E+00 2.17691804E-03-1.64072518E-07-9.70419870E-11 1.68200992E-14    2
-3.00042971E+04 4.96677010E+00 4.19864056E+00-2.03643410E-03 6.52040211E-06    3
-5.48797062E-09 1.77197817E-12-3.02937267E+04-8.49032208E-01 9.90409200E+03    4
HO2               L 5/89H   1O   2   00   00G   200.000  3500.000  1000.000    1
 4.01721090E+00 2.23982013E-03-6.33658150E-07 1.14246370E-10-1.07908535E-14    2
 1.11856713E+02 3.78510215E+00 4.30179801E+00-4.74912051E-03 2.11582891E-05    3
-2.42763894E-08 9.29225124E-12 2.94808040E+02 3.71666245E+00 1.00021620E+04    4
H2O2              L 7/88H   2O   2   00   00G   200.000  3500.000  1000.000    1
 4.16500285E+00 4.90831694E-03-1.90139225E-06 3.71185986E-10-2.87908305E-14    2
-1.78617877E+04 2.91615662E+00 4.27611269E+00-5.42822417E-04 1.67335701E-05    3
-2.15770813E-08 8.62454363E-12-1.77025821E+04 3.43505074E+00 1.11588350E+04    4
C                 L11/88C   1   00   00   00G   200.000  3500.000  1000.000    1
 2.49266888E+00 4.79889284E-05-7.24335020E-08 3.74291029E-11-4.87277893E-15    2
 8.54512953E+04 4.80150373E+00 2.55423955E+00-3.21537724E-04 7.33792245E-07    3
-7.32234889E-10 2.66521446E-13 8.54438832E+04 4.53130848E+00 6.53589500E+03    4
CH                TPIS79C   1H   1   00   00G   200.000  3500.000  1000.000    1
 2.87846473E+00 9.70913681E-04 1.44445655E-07-1.30687849E-10 1.76079383E-14    2
 7.10124364E+04 5.48497999E+00 3.48981665E+00 3.23835541E-04-1.68899065E-06    3
 3.16217327E-09-1.40609067E-12 7.07972934E+04 2.08401108E+00 8.62500000E+03    4
CH2               L S/93C   1H   2   00   00G   200.000  3500.000  1000.000    1
 2.87410113E+00 3.65639292E-03-1.40894597E-06 2.60179549E-10-1.87727567E-14    2
 4.62636040E+04 6.17119324E+00 3.76267867E+00 9.68872143E-04 2.79489841E-06    3
-3.85091153E-09 1.68741719E-12 4.60040401E+04 1.56253185E+00 1.00274170E+04    4
CH2*              L S/93C   1H   2   00   00G   200.000  3500.000  1000.000    1
 2.29203842E+00 4.65588637E-03-2.01191947E-06 4.17906000E-10-3.39716365E-14    2
 5.09259997E+04 8.62650169E+00 4.19860411E+00-2.36661419E-03 8.23296220E-06    3
-6.68815981E-09 1.94314737E-12 5.04968163E+04-7.69118967E-01 9.93967200E+03    4
CH3               L11/89C   1H   3   00   00G   200.000  3500.000  1000.000    1
 2.28571772E+00 7.23990037E-03-2.98714348E-06 5.95684644E-10-4.67154394E-14    2
 1.67755843E+04 8.48007179E+00 3.67359040E+00 2.01095175E-03 5.73021856E-06    3
-6.87117425E-09 2.54385734E-12 1.64449988E+04 1.60456433E+00 1.03663400E+04    4
CH4               L 8/88C   1H   4   00   00G   200.000  3500.000  1000.000    1
 7.48514950E-02 1.33909467E-02-5.73285809E-06 1.22292535E-09-1.01815230E-13    2
-9.46834459E+03 1.84373180E+01 5.14987613E+00-1.36709788E-02 4.91800599E-05    3
-4.84743026E-08 1.66693956E-11-1.02466476E+04-4.64130376E+00 1.00161980E+04    4
CO                TPIS79C   1O   1   00   00G   200.000  3500.000  1000.000    1
 2.71518561E+00 2.06252743E-03-9.98825771E-07 2.30053008E-10-2.03647716E-14    2
-1.41518724E+04 7.81868772E+00 3.57953347E+00-6.10353680E-04 1.01681433E-06    3
 9.07005884E-10-9.04424499E-13-1.43440860E+04 3.50840928E+00 8.67100000E+03    4
CO2               L 7/88C   1O   2   00   00G   200.000  3500.000  1000.000    1
 3.85746029E+00 4.41437026E-03-2.21481404E-06 5.23490188E-10-4.72084164E-14    2
-4.87591660E+04 2.27163806E+00 2.35677352E+00 8.98459677E-03-7.12356269E-06    3
 2.45919022E-09-1.43699548E-13-4.83719697E+04 9.90105222E+00 9.36546900E+03    4
HCO               L12/89H   1C   1O   1   00G   200.000  3500.000  1000.000    1
 2.77217438E+00 4.95695526E-03-2.48445613E-06 5.89161778E-10-5.33508711E-14    2
 4.01191815E+03 9.79834492E+00 4.22118584E+00-3.24392532E-03 1.37799446E-05    3
-1.33144093E-08 4.33768865E-12 3.83956496E+03 3.39437243E+00 9.98945000E+03    4
CH2O              L 8/88H   2C   1O   1   00G   200.000  3500.000  1000.000    1
 1.76069008E+00 9.20000082E-03-4.42258813E-06 1.00641212E-09-8.83855640E-14    2
-1.39958323E+04 1.36563230E+01 4.79372315E+00-9.90833369E-03 3.73220008E-05    3
-3.79285261E-08 1.31772652E-11-1.43089567E+04 6.02812900E-01 1.00197170E+04    4
CH2OH             GUNL93C   1H   3O   1   00G   200.000  3500.000 1000.0       1
 3.69266569E+00 8.64576797E-03-3.75101120E-06 7.87234636E-10-6.48554201E-14    2
-3.24250627E+03 5.81043215E+00 3.86388918E+00 5.59672304E-03 5.93271791E-06    3
-1.04532012E-08 4.36967278E-12-3.19391367E+03 5.47302243E+00 1.18339080E+04    4
CH3O              121686C   1H   3O   1     G  0300.00   3000.00  1000.00      1
 0.03770799E+02 0.07871497E-01-0.02656384E-04 0.03944431E-08-0.02112616E-12    2
 0.12783252E+03 0.02929575E+02 0.02106204E+02 0.07216595E-01 0.05338472E-04    3
-0.07377636E-07 0.02075610E-10 0.09786011E+04 0.13152177E+02                   4
CH3OH             L 8/88C   1H   4O   1   00G   200.000  3500.000  1000.000    1
 1.78970791E+00 1.40938292E-02-6.36500835E-06 1.38171085E-09-1.17060220E-13    2
-2.53748747E+04 1.45023623E+01 5.71539582E+00-1.52309129E-02 6.52441155E-05    3
-7.10806889E-08 2.61352698E-11-2.56427656E+04-1.50409823E+00 1.14352770E+04    4
C2H               L 1/91C   2H   1   00   00G   200.000  3500.000  1000.000    1
 3.16780652E+00 4.75221902E-03-1.83787077E-06 3.04190252E-10-1.77232770E-14    2
 6.71210650E+04 6.63589475E+00 2.88965733E+00 1.34099611E-02-2.84769501E-05    3
 2.94791045E-08-1.09331511E-11 6.68393932E+04 6.22296438E+00 1.04544720E+04    4
C2H2              L 1/91C   2H   2   00   00G   200.000  3500.000  1000.000    1
 4.14756964E+00 5.96166664E-03-2.37294852E-06 4.67412171E-10-3.61235213E-14    2
 2.59359992E+04-1.23028121E+00 8.08681094E-01 2.33615629E-02-3.55171815E-05    3
 2.80152437E-08-8.50072974E-12 2.64289807E+04 1.39397051E+01 1.00058390E+04    4
C2H3              L 2/92C   2H   3   00   00G   200.000  3500.000  1000.000    1
 3.01672400E+00 1.03302292E-02-4.68082349E-06 1.01763288E-09-8.62607041E-14    2
 3.46128739E+04 7.78732378E+00 3.21246645E+00 1.51479162E-03 2.59209412E-05    3
-3.57657847E-08 1.47150873E-11 3.48598468E+04 8.51054025E+00 1.05750490E+04    4
C2H4              L 1/91C   2H   4   00   00G   200.000  3500.000  1000.000    1
 2.03611116E+00 1.46454151E-02-6.71077915E-06 1.47222923E-09-1.25706061E-13    2
 4.93988614E+03 1.03053693E+01 3.95920148E+00-7.57052247E-03 5.70990292E-05    3
-6.91588753E-08 2.69884373E-11 5.08977593E+03 4.09733096E+00 1.05186890E+04    4
C2H5              L12/92C   2H   5   00   00G   200.000  3500.000  1000.000    1
 1.95465642E+00 1.73972722E-02-7.98206668E-06 1.75217689E-09-1.49641576E-13    2
 1.28575200E+04 1.34624343E+01 4.30646568E+00-4.18658892E-03 4.97142807E-05    3
-5.99126606E-08 2.30509004E-11 1.28416265E+04 4.70720924E+00 1.21852440E+04    4
C2H6              L 8/88C   2H   6   00   00G   200.000  3500.000  1000.000    1
 1.07188150E+00 2.16852677E-02-1.00256067E-05 2.21412001E-09-1.90002890E-13    2
-1.14263932E+04 1.51156107E+01 4.29142492E+00-5.50154270E-03 5.99438288E-05    3
-7.08466285E-08 2.68685771E-11-1.15222055E+04 2.66682316E+00 1.18915940E+04    4
CH2CO             L 5/90C   2H   2O   1   00G   200.000  3500.000  1000.000    1
 4.51129732E+00 9.00359745E-03-4.16939635E-06 9.23345882E-10-7.94838201E-14    2
-7.55105311E+03 6.32247205E-01 2.13583630E+00 1.81188721E-02-1.73947474E-05    3
 9.34397568E-09-2.01457615E-12-7.04291804E+03 1.22156480E+01 1.17977430E+04    4
HCCO              SRIC91H   1C   2O   1     G  0300.00   4000.00  1000.00      1
 0.56282058E+01 0.40853401E-02-0.15934547E-05 0.28626052E-09-0.19407832E-13    2
 0.19327215E+05-0.39302595E+01 0.22517214E+01 0.17655021E-01-0.23729101E-04    3
 0.17275759E-07-0.50664811E-11 0.20059449E+05 0.12490417E+02                   4
HCCOH              SRI91C   2O   1H   20   0G   300.000  5000.000   1000.00    1
 0.59238291E+01 0.67923600E-02-0.25658564E-05 0.44987841E-09-0.29940101E-13    2
 0.72646260E+04-0.76017742E+01 0.12423733E+01 0.31072201E-01-0.50866864E-04    3
 0.43137131E-07-0.14014594E-10 0.80316143E+04 0.13874319E+02                   4
N2                121286N   2               G  0300.00   5000.00  1000.00      1
 0.02926640E+02 0.14879768E-02-0.05684760E-05 0.10097038E-09-0.06753351E-13    2
-0.09227977E+04 0.05980528E+02 0.03298677E+02 0.14082404E-02-0.03963222E-04    3
 0.05641515E-07-0.02444854E-10-0.10208999E+04 0.03950372E+02                   4
AR                120186AR  1               G  0300.00   5000.00  1000.00      1
 0.02500000E+02 0.00000000E+00 0.00000000E+00 0.00000000E+00 0.00000000E+00    2
-0.07453750E+04 0.04366000E+02 0.02500000E+02 0.00000000E+00 0.00000000E+00    3
 0.00000000E+00 0.00000000E+00-0.07453750E+04 0.04366000E+02                   4
C4H               P 1/93C   4H   1    0    0G   300.000  3000.000              1
 0.77697593E+01 0.49829976E-02-0.17628546E-05 0.28144284E-09-0.16689869E-13    2
 0.94345900E+05-0.14165274E+02 0.13186295E+01 0.38582956E-01-0.71385623E-04    3
 0.65356359E-07-0.22617666E-10 0.95456106E+05 0.15567583E+02                   4
C4H2              P 1/93C   4H   2    0    0G   300.000  3000.000              1
 0.86637708E+01 0.67247189E-02-0.23593397E-05 0.37506380E-09-0.22230940E-13    2
 0.53252275E+05-0.21093503E+02-0.39201030E+00 0.51937565E-01-0.91737340E-04    3
 0.80471986E-07-0.26898218E-10 0.54845266E+05 0.20957794E+02                   4
C6H2              P 1/93C   6H   2    0    0G   300.000  3000.000              1
 0.13226281E+02 0.73904302E-02-0.22715381E-05 0.25875217E-09-0.55356741E-14    2
 0.80565258E+05-0.41201176E+02-0.15932624E+01 0.80530145E-01-0.14800649E-03    3
 0.13300031E-06-0.45332313E-10 0.83273227E+05 0.27980873E+02                   4
C6H               P 1/93C   6H   1    0    0G   300.000  3000.000              1
 0.12370055E+02 0.52177699E-02-0.16885009E-05 0.25807149E-09-0.15472851E-13    2
 0.12158739E+06-0.34952797E+02-0.25630299E+00 0.63793827E-01-0.11440118E-03    3
 0.10136744E-06-0.34361855E-10 0.12408855E+06 0.24930750E+02                   4
C2O               121286C   2O   1          G  0300.00   5000.00  1000.00      1
 0.04849809E+02 0.02947585E-01-0.01090729E-04 0.01792562E-08-0.01115758E-12    2
 0.03282055E+06-0.06453226E+01 0.03368851E+02 0.08241803E-01-0.08765145E-04    3
 0.05569262E-07-0.01540009E-10 0.03317081E+06 0.06713314E+02                   4
C3H2              UT8/99C   3H   2          G   200.000  3500.00 1000.00       1
 0.71572642E+01 0.55660834E-02-0.22944369E-05 0.44922385E-09-0.34017182E-13    2
 0.66001539E+05-0.11347860E+02 0.29415061E+01 0.27682947E-01-0.46382396E-04    3
 0.39372626E-07-0.12770546E-10 0.66671312E+05 0.79103537E+01                   4
cC3H2             121686C   3H   2          G  0300.00   5000.00  1000.00      1
 0.06530853E+02 0.05870316E-01-0.01720777E-04 0.02127498E-08-0.08291910E-13    2
 0.05115214E+06-0.01122728E+03 0.02691077E+02 0.01480366E+00-0.03250551E-04    3
-0.08644363E-07 0.05284878E-10 0.05219072E+06 0.08757391E+02                   4
C3H3              T 5/97C   3H   3    0    0G   200.000  6000.000              1
 7.14221880E+00 7.61902005E-03-2.67459950E-06 4.24914801E-10-2.51475415E-14    2
 3.89087427E+04-1.25848436E+01 1.35110927E+00 3.27411223E-02-4.73827135E-05    3
 3.76309808E-08-1.18540923E-11 4.01057783E+04 1.52058924E+01 4.16139977E+04    4
aC3H4             L 8/89C   3H   4    0    0G   200.000  6000.000              1
 0.63168722E+01 0.11133728E-01-0.39629378E-05 0.63564238E-09-0.37875540E-13    2
 0.20117495E+05-0.10995766E+02 0.26130445E+01 0.12122575E-01 0.18539880E-04    3
-0.34525149E-07 0.15335079E-10 0.21541567E+05 0.10226139E+02 0.22962267E+05    4
pC3H4             T 2/90H   4C   3    0    0G   200.000  6000.000              1
 0.60252400E+01 0.11336542E-01-0.40223391E-05 0.64376063E-09-0.38299635E-13    2
 0.19620942E+05-0.86043785E+01 0.26803869E+01 0.15799651E-01 0.25070596E-05    3
-0.13657623E-07 0.66154285E-11 0.20802374E+05 0.98769351E+01 0.22302059E+05    4
cC3H4             T12/81C   3H   4    0    0G   300.000  5000.000              1
 0.66999931E+01 0.10357372E-01-0.34551167E-05 0.50652949E-09-0.26682276E-13    2
 0.30199051E+05-0.13378770E+02-0.24621047E-01 0.23197215E-01-0.18474357E-05    3
-0.15927593E-07 0.86846155E-11 0.32334137E+05 0.22729762E+02 0.3332728 E+05    4
H2C4O             120189H   2C   4O   1     G  0300.00   4000.00  1000.00      1
 0.01026888E+03 0.04896164E-01-0.04885081E-05-0.02708566E-08 0.05107013E-12    2
 0.02346903E+06-0.02815985E+03 0.04810971E+02 0.01313999E+00 0.09865073E-05    3
-0.06120720E-07 0.01640003E-10 0.02545803E+06 0.02113424E+02                   4
C5H2               20587C   5H   2          G  0300.00   5000.00  1000.00      1
 0.01132917E+03 0.07424057E-01-0.02628189E-04 0.04082541E-08-0.02301333E-12    2
 0.07878706E+06-0.03617117E+03 0.03062322E+02 0.02709998E+00-0.01009170E-03    3
-0.01272745E-06 0.09167219E-10 0.08114969E+06 0.07071078E+02                   4
C5H3               20387C   5H   3          G  0300.00   5000.00  1000.00      1
 0.01078762E+03 0.09539619E-01-0.03206745E-04 0.04733323E-08-0.02512135E-12    2
 0.06392904E+06-0.03005444E+03 0.04328720E+02 0.02352480E+00-0.05856723E-04    3
-0.01215449E-06 0.07726478E-10 0.06588531E+06 0.04173259E+02                   4
C4H4              H6W/94C   4H   4    0    0G   300.000  3000.000              1
 0.66507092E+01 0.16129434E-01-0.71938875E-05 0.14981787E-08-0.11864110E-12    2
 0.31195992E+05-0.97952118E+01-0.19152479E+01 0.52750878E-01-0.71655944E-04    3
 0.55072423E-07-0.17286228E-10 0.32978504E+05 0.31419983E+02                   4
n-C4H3            H6W/94C   4H   3    0    0G   300.000  3000.000              1
 0.54328279E+01 0.16860981E-01-0.94313109E-05 0.25703895E-08-0.27456309E-12    2
 0.61600680E+05-0.15673981E+01-0.31684113E+00 0.46912100E-01-0.68093810E-04    3
 0.53179921E-07-0.16523005E-10 0.62476199E+05 0.24622559E+02                   4
i-C4H3            AB1/93C   4H   3    0    0G   300.000  3000.000              1
 0.90978165E+01 0.92207119E-02-0.33878441E-05 0.49160498E-09-0.14529780E-13    2
 0.56600574E+05-0.19802597E+02 0.20830412E+01 0.40834274E-01-0.62159685E-04    3
 0.51679358E-07-0.17029184E-10 0.58005129E+05 0.13617462E+02                   4
C2H3O             T04/83O   1H   3C   2    0G   300.000  5000.000              1
 0.59756699E+01 0.81305914E-02-0.27436245E-05 0.40703041E-09-0.21760171E-13    2
 0.49032178E+03-0.50320879E+01 0.34090624E+01 0.10738574E-01 0.18914925E-05    3
 0.71585831E-08 0.28673851E-11 0.15214766E+04 0.95714535E+01 0.30474436E+04    4
CH2CHO            T04/83O   1H   3C   2    0G   300.000  5000.000              1
 0.59756699E+01 0.81305914E-02-0.27436245E-05 0.40703041E-09-0.21760171E-13    2
 0.49032178E+03-0.50320879E+01 0.34090624E+01 0.10738574E-01 0.18914925E-05    3
 0.71585831E-08 0.28673851E-11 0.15214766E+04 0.95714535E+01 0.30474436E+04    4
n-C4H5            H6W/94C   4H   5    0    0G   300.000  3000.000              1
 0.98501978E+01 0.10779008E-01-0.13672125E-05-0.77200535E-09 0.18366314E-12    2
 0.38840301E+05-0.26001846E+02 0.16305321E+00 0.39830137E-01-0.34000128E-04    3
 0.15147233E-07-0.24665825E-11 0.41429766E+05 0.23536163E+02                   4
i-C4H5            H6W/94C   4H   5    0    0G   300.000  3000.000              1
 0.10229092E+02 0.94850138E-02-0.90406445E-07-0.12596100E-08 0.24781468E-12    2
 0.34642812E+05-0.28564529E+02-0.19932900E-01 0.38005672E-01-0.27559450E-04    3
 0.77835551E-08 0.40209383E-12 0.37496223E+05 0.24394241E+02                   4
n-C4H7            H6W/94C   4H   7    0    0G   300.000  3000.000              1
 0.11963392E+02 0.11425305E-01 0.78948909E-06-0.19858872E-08 0.36873645E-12    2
 0.16962977E+05-0.37542908E+02 0.28698254E+00 0.36964495E-01-0.86277441E-05    3
-0.15051821E-07 0.89891263E-11 0.20551301E+05 0.24484467E+02                   4
C4H6              H6W/94C   4H   6    0    0G   300.000  3000.000              1
 0.88673134E+01 0.14918670E-01-0.31548716E-05-0.41841330E-09 0.15761258E-12    2
 0.91338516E+04-0.23328171E+02 0.11284465E+00 0.34369022E-01-0.11107392E-04    3
-0.92106660E-08 0.62065179E-11 0.11802270E+05 0.23089996E+02                   4
C4H612            A 8/83C   4H   6    0    0G   300.     3000.     1000.0      1
  0.1781557E 02 -0.4257502E-02  0.1051185E-04 -0.4473844E-08  0.5848138E-12    2
  0.1267342E 05 -0.6982662E 02  0.1023467E 01  0.3495919E-01 -0.2200905E-04    3
  0.6942272E-08 -0.7879187E-12  0.1811799E 05  0.1975066E 02  0.1950807E+05    4
l-C6H4            H6W/94C   6H   4    0    0G   300.000  3000.000              1
 0.12715182E+02 0.13839662E-01-0.43765440E-05 0.31541636E-09 0.46619026E-13    2
 0.57031148E+05-0.39464600E+02 0.29590225E+00 0.58053318E-01-0.67766756E-04    3
 0.43376762E-07-0.11418864E-10 0.60001371E+05 0.22318970E+02                   4
c-C6H4            H6W/94C   6H   4    0    0G   300.000  3000.000              1
 0.13849209E+02 0.78807920E-02 0.18243836E-05-0.21169166E-08 0.37459977E-12    2
 0.47446340E+05-0.50404953E+02-0.30991268E+01 0.54030564E-01-0.40839004E-04    3
 0.10738837E-07 0.98078490E-12 0.52205711E+05 0.37415207E+02                   4
n-C6H5            H6W/94C   6H   5    0    0G   300.000  3000.000              1
 0.16070068E+02 0.81899539E-02 0.17325165E-05-0.20624185E-08 0.36292345E-12    2
 0.64616867E+05-0.56163742E+02-0.61135769E+00 0.65082610E-01-0.78262397E-04    3
 0.53030828E-07-0.14946683E-10 0.68805375E+05 0.27635468E+02                   4
l-C6H6            H6W/94C   6H   6    0    0G   300.000  3000.000              1
 0.17584442E+02 0.64486600E-02 0.48933980E-05-0.34696221E-08 0.56150749E-12    2
 0.34111988E+05-0.66017838E+02-0.10170622E+01 0.61794821E-01-0.59461061E-04    3
 0.31873491E-07-0.71717693E-11 0.39202707E+05 0.29460373E+02                   4
c-C6H7            H6W/94C   6H   7    0    0G   300.000  3000.000              1
 0.19996841E+02 0.11189543E-02 0.11649756E-04-0.62779471E-08 0.94939508E-12    2
 0.16730059E+05-0.83746933E+02-0.30328493E+01 0.50804518E-01-0.69150292E-05    3
-0.29715974E-07 0.16296353E-10 0.23895383E+05 0.38909180E+02                   4
n-C6H7            H6W/94C   6H   7    0    0G   300.000  3000.000              1
 0.22577469E+02-0.30737517E-02 0.14225234E-04-0.69880848E-08 0.10232874E-11    2
 0.41228980E+05-0.91568619E+02 0.13248032E+00 0.57103366E-01-0.43712644E-04    3
 0.15538603E-07-0.12976356E-11 0.47730512E+05 0.25339081E+02                   4
C6H8              H6W/94C   6H   8    0    0G   300.000  3000.000              1
 0.28481979E+02-0.15702948E-01 0.26771697E-04-0.11780109E-07 0.16573427E-11    2
 0.93346445E+04-0.12500226E+03 0.15850439E+01 0.40215142E-01 0.78439543E-05    3
-0.38761325E-07 0.18545207E-10 0.17949613E+05 0.19112625E+02                   4
C6H3              H6W/94C   6H   3    0    0G   300.000  3000.000              1
 0.58188343E+01 0.27933408E-01-0.17825427E-04 0.53702536E-08-0.61707627E-12    2
 0.85188250E+05-0.92147827E+00 0.11790619E+01 0.55547360E-01-0.73076168E-04    3
 0.52076736E-07-0.15046964E-10 0.85647312E+05 0.19179199E+02                   4
i-C6H5            H6W/94C   6H   5    0    0G   300.000  3000.000              1
 0.22501663E+02-0.81009977E-02 0.15955695E-04-0.72310371E-08 0.10310424E-11    2
 0.58473410E+05-0.91224777E+02-0.78585434E+00 0.60221825E-01-0.62890264E-04    3
 0.36310730E-07-0.87000259E-11 0.64942270E+05 0.28658905E+02                   4
i-C6H7            H6W/94C   6H   7    0    0G   300.000  3000.000              1
 0.20481506E+02 0.79439697E-03 0.11450761E-04-0.60991177E-08 0.91756724E-12    2
 0.37728426E+05-0.81812073E+02-0.17099094E+01 0.62486034E-01-0.54290707E-04    3
 0.26959682E-07-0.58999090E-11 0.44086621E+05 0.33344772E+02                   4
A1                H6W/94C   6H   6    0    0G   300.000  3000.000              1
 0.17246994E+02 0.38420164E-02 0.82776232E-05-0.48961120E-08 0.76064545E-12    2
 0.26646055E+04-0.71945175E+02-0.48998680E+01 0.59806932E-01-0.36710087E-04    3
 0.32740399E-08 0.37600886E-11 0.91824570E+04 0.44095642E+02                   4
A1-               H6W/94C   6H   5    0    0G   300.000  3000.000              1
 0.14493439E+02 0.75712688E-02 0.37894542E-05-0.30769500E-08 0.51347820E-12    2
 0.33189977E+05-0.54288940E+02-0.49076147E+01 0.59790771E-01-0.45639827E-04    3
 0.14964993E-07-0.91767826E-12 0.38733410E+05 0.46567780E+02                   4
C5H5              L 7/89C   5H   5    0    0G   200.000  6000.000              1
 0.10844066d+02 0.15392837d-01-0.55630421d-05 0.90189371d-09-0.54156531d-13    2
 0.26900566d+05-0.35254948d+02-0.95903718d+00 0.31396859d-01 0.26723794d-04    3
-0.68941872d-07 0.33301856d-10 0.30729120d+05 0.29072816d+02 0.31954258d+05    4
C5H6            C-P10/85C   5H   6    0    0G   298.150  5000.000              1
 0.10624320E 02 0.17735448E-01-0.62330446E-05 0.97308317E-09-0.55500130E-13    2
 0.10772188E 05-0.35773422E 02-0.28978958E 01 0.43484777E-01-0.33511005E-05    3
-0.31103756E-07 0.16912444E-10 0.15084742E 05 0.36894760E 02 0.16068486E 05    4
C6H5O             L12/84C   6H   5O   1    0G   300.000  5000.000              1
 0.13833984E 02 0.17618403E-01-0.60696257E-05 0.91988173E-09-0.50449181E-13    2
-0.69212549E 03-0.50392990E 02-0.18219433E 01 0.48122510E-01-0.46792302E-05    3
-0.34018594E-07 0.18649637E-10 0.42429180E 04 0.33526199E 02 0.57367379E 04    4
C6H5OH            L 4/84C   6H   6O   1    0G   300.000  5000.000              1
 0.14912073E 02 0.18378135E-01-0.61983128E-05 0.91983221E-09-0.49209565E-13    2
-0.18375199E 05-0.55924103E 02-0.16956539E 01 0.52271299E-01-0.72024050E-05    3
-0.35859603E-07 0.20449073E-10-0.13284121E 05 0.32542160E 02-0.11594207E 05    4
C5H4OH            L 8/89C   5H   5O   1    0G   200.000  6000.000              1
 0.13367912d+02 0.15205785d-01-0.54592258d-05 0.88134866d-09-0.52774454d-13    2
 0.38411506d+04-0.45920839d+02-0.12822236d+01 0.49041160d-01-0.13688997d-04    3
-0.29133858d-07 0.19006964d-10 0.80087098d+04 0.30798358d+02 0.96365992d+04    4
C5H4O             P 1/93C   5H   4O   1    0G   300.000  3000.000              1
 0.47927242E+01 0.29221680E-01-0.15997486E-04 0.42069049E-08-0.42815179E-12    2
 0.22849286E+04-0.30131893E+01-0.23915355E+01 0.47363680E-01-0.30728171E-04    3
 0.78031552E-08-0.25145729E-12 0.43740152E+04 0.34594337E+02                   4
C5H5O             L 7/89C   5O   1H   5    0G   200.000  6000.000              1
 0.12606422d+02 0.16747260d-01-0.61098574d-05 0.99676557d-09-0.60113201d-13    2
 0.39313455d+04-0.42604277d+02 0.23042835d+00 0.32322691d-01 0.28900443d-04    3
-0.70679977d-07 0.33406891d-10 0.80753082d+04 0.25330974d+02                   4
C4H10             P11/94C   4H  10    0    0G   300.000  3000.000              1
 0.10526774E+02 0.23590738E-01-0.78522480E-05 0.11448408E-08-0.59827703E-13    2
-0.20479223E+05-0.32198579E+02 0.15685419E+01 0.34652278E-01 0.68168129E-05    3
-0.27995097E-07 0.12307742E-10-0.17129977E+05 0.17908045E+02                   4
iC4H10            P11/94C   4H  10    0    0G   300.000  3000.000              1
 0.10846169E+02 0.23338389E-01-0.77833962E-05 0.11393807E-08-0.59918289E-13    2
-0.21669854E+05-0.35870573E+02 0.54109489E+00 0.37860301E-01 0.55459804E-05    3
-0.30500110E-07 0.14033357E-10-0.17977644E+05 0.21150935E+02                   4
pC4H9             P11/94C   4H   9    0    0G   300.000  3000.000              1
 0.90131759E+01 0.23992501E-01-0.89488794E-05 0.15311024E-08-0.98216680E-13    2
 0.47050163E+04-0.20568160E+02 0.22128506E+01 0.32808150E-01 0.35445091E-05    3
-0.24586397E-07 0.11510570E-10 0.71406715E+04 0.17148115E+02                   4
sC4H9             P11/94C   4H   9    0    0G   300.000  3000.000              1
 0.94263839E+01 0.21918998E-01-0.72868375E-05 0.10630334E-08-0.55649464E-13    2
 0.31965874E+04-0.22406051E+02 0.69428423E+00 0.33113346E-01 0.62942577E-05    3
-0.27025274E-07 0.11989315E-10 0.64175654E+04 0.26279789E+02                   4
tC4H9             P11/94C   4H   9    0    0G   300.000  3000.000              1
 0.76607261E+01 0.23879414E-01-0.80890353E-05 0.12057521E-08-0.65009814E-13    2
 0.16207623E+04-0.14800281E+02 0.96167553E+00 0.25735856E-01 0.15609033E-04    3
-0.26656519E-07 0.89418010E-11 0.46564412E+04 0.24805366E+02                   4
iC4H9             P11/94C   4H   9    0    0G   300.000  3000.000              1
 0.36943491E+01 0.36043526E-01-0.18406555E-04 0.46356137E-08-0.45862968E-12    2
 0.53753792E+04 0.68486993E+01-0.52798452E+00 0.50164629E-01-0.37679302E-04    3
 0.17505938E-07-0.39549774E-11 0.64430984E+04 0.28114795E+02                   4
C4H81             T 6/83C   4H   8    0    0G   300.000  5000.000              1
 0.20535841E+01 0.34350507E-01-0.15883197E-04 0.33089662E-08-0.25361045E-12    2
-0.21397231E+04 0.15543201E+02 0.11811380E+01 0.30853380E-01 0.50865247E-05    3
-0.24654888E-07 0.11110193E-10-0.17904004E+04 0.21062469E+02                   4
C4H82             T 6/83C   4H   8    0    0G   300.000  5000.00               1
 0.82797676E+00 0.35864539E-01-0.16634498E-04 0.34732759E-08-0.26657398E-12    2
-0.30521033E+04 0.21342545E+02 0.12594252E+01 0.27808424E-01 0.87013932E-05    3
-0.24402205E-07 0.98977710E-11-0.29647742E+04 0.20501129E+02                   4
iC4H8             T 6/83H   8C   4    0    0G   300.000  5000.0                1
 0.44609470E+01 0.29611487E-01-0.13077129E-04 0.26571934E-08-0.20134713E-12    2
-0.50066758E+04 0.10671549E+01 0.26471405E+01 0.25902957E-01 0.81985354E-05    3
-0.22193259E-07 0.88958580E-11-0.40373069E+04 0.12676388E+02                   4
C4H7              AM1/94C   4H   7    0    0G   300.000  3000.000  1000.000    1
 0.11963392E+02 0.11425305E-01 0.78948909E-06-0.19858872E-08 0.36873645E-12    2
 0.16962977E+05-0.37542908E+02 0.28698254E+00 0.36964495E-01-0.86277441E-05    3
-0.15051821E-07 0.89891263E-11 0.20551301E+05 0.24484467E+02                   4
iC4H7             P11/94C   4H   7    0    0G   300.000  3000.000              1
 0.74491956E+01 0.22630504E-01-0.88095014E-05 0.14336478E-08-0.73247269E-13    2
 0.11196182E+05-0.11947779E+02 0.34512660E+01 0.24686039E-01 0.52359514E-05    3
-0.16130826E-07 0.53881687E-11 0.12783361E+05 0.11080150E+02                   4
C3H8              P11/94C   3H   8    0    0G   300.000  3000.000              1
 0.75244152E+01 0.18898282E-01-0.62921041E-05 0.92161457E-09-0.48684478E-13    2
-0.16564394E+05-0.17838375E+02 0.92851093E+00 0.26460566E-01 0.60332446E-05    3
-0.21914953E-07 0.94961544E-11-0.14057907E+05 0.19225538E+02                   4
nC3H7             P11/94C   3H   7    0    0G   300.000  3000.000              1
 0.77097479E+01 0.16031485E-01-0.52720238E-05 0.75888352E-09-0.38862719E-13    2
 0.79762236E+04-0.15515297E+02 0.10491173E+01 0.26008973E-01 0.23542516E-05    3
-0.19595132E-07 0.93720207E-11 0.10312346E+05 0.21136034E+02                   4
iC3H7             P11/94C   3H   7    0    0G   300.000  3000.000              1
 0.65192741E+01 0.17220104E-01-0.57364217E-05 0.84130732E-09-0.44565913E-13    2
 0.73227193E+04-0.90830215E+01 0.14449199E+01 0.20999112E-01 0.77036222E-05    3
-0.18476253E-07 0.71282962E-11 0.94223724E+04 0.20116317E+02                   4
C3H6              120186C   3H   6          G  0300.00   5000.00  1000.00      1
 0.06732257E+02 0.01490834E+00-0.04949899E-04 0.07212022E-08-0.03766204E-12    2
-0.09235703E+04-0.01331335E+03 0.01493307E+02 0.02092518E+00 0.04486794E-04    3
-0.01668912E-06 0.07158146E-10 0.01074826E+05 0.01614534E+03                   4
CH3COCH3          T 9/92C   3H   6O   1    0G   273.150  5000.0                1