&HEAD CHID='bound_test',TITLE='slice bound test $Revision: 10453 $' /

&MESH IJK=4,1,5, XB=0.0,4.0,0.0,1.0,0.0,5.0 /

&MISC HRRPUV_MAX_SMV=1300.0 /

&DUMP NFRAMES=400 DT_PL3D=8.0, DT_SL3D=0.1 /

&TIME T_END=10. /  Total simulation time



&INIT XB=0.0,1.0,0.0,1.0,0.0,1.0,TEMPERATURE=11.0 /
&INIT XB=1.0,2.0,0.0,1.0,0.0,1.0,TEMPERATURE=21.0 /
&INIT XB=2.0,3.0,0.0,1.0,0.0,1.0,TEMPERATURE=31.0 /
&INIT XB=3.0,4.0,0.0,1.0,0.0,1.0,TEMPERATURE=41.0 /

&INIT XB=0.0,1.0,0.0,1.0,1.0,2.0,TEMPERATURE=12.0 /
&INIT XB=1.0,2.0,0.0,1.0,1.0,2.0,TEMPERATURE=22.0 /
&INIT XB=2.0,3.0,0.0,1.0,1.0,2.0,TEMPERATURE=32.0 /
&INIT XB=3.0,4.0,0.0,1.0,1.0,2.0,TEMPERATURE=42.0 /

&INIT XB=0.0,1.0,0.0,1.0,2.0,3.0,TEMPERATURE=13.0 /
&INIT XB=1.0,2.0,0.0,1.0,2.0,3.0,TEMPERATURE=23.0 /
&INIT XB=2.0,3.0,0.0,1.0,2.0,3.0,TEMPERATURE=33.0 /
&INIT XB=3.0,4.0,0.0,1.0,2.0,3.0,TEMPERATURE=43.0 /

&INIT XB=0.0,1.0,0.0,1.0,3.0,4.0,TEMPERATURE=14.0 /
&INIT XB=1.0,2.0,0.0,1.0,3.0,4.0,TEMPERATURE=24.0 /
&INIT XB=2.0,3.0,0.0,1.0,3.0,4.0,TEMPERATURE=34.0 /
&INIT XB=3.0,4.0,0.0,1.0,3.0,4.0,TEMPERATURE=44.0 /

&INIT XB=0.0,1.0,0.0,1.0,4.0,5.0,TEMPERATURE=15.0 /
&INIT XB=1.0,2.0,0.0,1.0,4.0,5.0,TEMPERATURE=25.0 /
&INIT XB=2.0,3.0,0.0,1.0,4.0,5.0,TEMPERATURE=35.0 /
&INIT XB=3.0,4.0,0.0,1.0,4.0,5.0,TEMPERATURE=45.0 /

&OBST XB=1.0,3.0,0.0,1.0,1.0,3.0,COLOR='CYAN' /
&INIT XB=1.0,3.0,0.0,1.0,1.0,3.0,TEMPERATURE=1000.0 /

&SLCF PBY=0.5,QUANTITY='TEMPERATURE',CELL_CENTERED=.TRUE. /  
&SLCF PBY=0.5,QUANTITY='TEMPERATURE' /

&TAIL /
