&HEAD CHID='capecod'  /
&TIME T_END=0. /
&MISC / 
&DUMP RENDER_FILE='Capecod.GE1' / 

******************************************
Meshes

Mesh 1
MESH IJK=483, 316, 95,  XB= -23.4, 24.9, -23.4, 8.2, -1.3, 8.2 / Entire Drawing
14,499,660 cells total 

Mesh 2
&MESH IJK=283, 115, 44,  XB= -15.8, 12.5, -10.5, 1, 2.7, 7.1 / Mesh 2
1,431,980 cells total 

Mesh 3
&MESH IJK=283, 115, 27,  XB= -15.8, 12.5, -10.5, 1, 0, 2.7 / Mesh 3
878,715 cells total 




******************************************
Domain Boundaries

&VENT MB='XMIN', SURF_ID='OPEN'/
&VENT MB='XMAX', SURF_ID='OPEN'/
&VENT MB='YMIN', SURF_ID='OPEN'/
&VENT MB='YMAX', SURF_ID='OPEN'/
&VENT MB='ZMIN', SURF_ID='INERT'/
&VENT MB='ZMAX', SURF_ID='OPEN'/

******************************************
Fires
&REAC C=3,H=8,SOOT_YIELD=0.01,FUEL='PROPANE'/
&SURF ID='FIRE_STEADYSTATE', HRRPUA=2000.0  /

&SURF ID='FIRE_RAMP', HRRPUA=2000.0 RAMP_Q='RAMP_FIRE' /
&RAMP ID='RAMP_FIRE', T=0.0, F=0.0 /
&RAMP ID='RAMP_FIRE', T=100.0, F=1.0 /

******************************************
Sample Output Types

SLCF PBY=0.0,QUANTITY='VELOCITY' /
SLCF PBX=0.0,QUANTITY='TEMPERATURE',VECTOR=.TRUE. /
BNDF QUANTITY='HEAT FLUX' /

******************************************
Obstruction Surface Types


&SURF ID='A-CEIL-MAIN-0',   RGB=128, 128, 128, /
&SURF ID='A-PLAT-RIM-CN-0',   RGB=126, 130, 122,  TEXTURE_MAP = 'C:\NIST\TEXTUREFILES\Aggregate(30).JPG'  TEXTURE_HEIGHT = 0.762,  TEXTURE_WIDTH = 0.762, /
&SURF ID='A-FLOR-MAIN-CN-0',   RGB=246, 209, 148,  TEXTURE_MAP = 'C:\NIST\TEXTUREFILES\Natural(80).JPG'  TEXTURE_HEIGHT = 2.032,  TEXTURE_WIDTH = 2.032, /
&SURF ID='A-WALL-MAIN-CN-0',   RGB=246, 209, 148,  TEXTURE_MAP = 'C:\NIST\TEXTUREFILES\Natural(80).JPG'  TEXTURE_HEIGHT = 2.032,  TEXTURE_WIDTH = 2.032, /
&SURF ID='A-FOOT-FOOT-CN-0',  /
&SURF ID='A-MASN-FIRE-BK-0',   RGB=128, 64, 64, /
&SURF ID='A-WALL-MAIN-SR-0',  /
&SURF ID='A-ROOF-EAVE-0',  /
&SURF ID='A-ROOF-FASC-0',  /
&SURF ID='A-ROOF-MAIN-SH-0',   RGB=173, 99, 77,  TEXTURE_MAP = 'C:\NIST\TEXTUREFILES\Spanishtile1(36).JPG'  TEXTURE_HEIGHT = 0.9144,  TEXTURE_WIDTH = 0.9144, /
&SURF ID='A-CEIL-SLOP-0',   RGB=128, 128, 128, /
&SURF ID='A-PLAT-RIM-0',   RGB=126, 130, 122,  TEXTURE_MAP = 'C:\NIST\TEXTUREFILES\Aggregate(30).JPG'  TEXTURE_HEIGHT = 0.762,  TEXTURE_WIDTH = 0.762, /
&SURF ID='A-FLOR-MAIN-0',   RGB=246, 209, 148,  TEXTURE_MAP = 'C:\NIST\TEXTUREFILES\Natural(80).JPG'  TEXTURE_HEIGHT = 2.032,  TEXTURE_WIDTH = 2.032, /
&SURF ID='A-FLOR-MAIN-1',   RGB=246, 209, 148,  TEXTURE_MAP = 'C:\NIST\TEXTUREFILES\Natural(80).JPG'  TEXTURE_HEIGHT = 2.032,  TEXTURE_WIDTH = 2.032, /
&SURF ID='A-FLOR-MAIN-DP-0',  /
&SURF ID='A-FLOR-MAIN-2',   RGB=246, 209, 148,  TEXTURE_MAP = 'C:\NIST\TEXTUREFILES\Natural(80).JPG'  TEXTURE_HEIGHT = 2.032,  TEXTURE_WIDTH = 2.032, /
&SURF ID='A-CEIL-MAIN-1',  /
&SURF ID='A-WALL-MAIN-BK-0',   RGB=167, 174, 182,  TEXTURE_MAP = 'C:\NIST\TEXTUREFILES\T0006765.JPG'  TEXTURE_HEIGHT = 1.524,  TEXTURE_WIDTH = 1.524, /
&SURF ID='A-WDWK-EXTR-0',  /
&SURF ID='A-WDWK-TRIM-0',  /
&SURF ID='A-GLAZ-WIND-0',  /
&SURF ID='A-WDWK-EXTTRIM-0',  /
&SURF ID='A-FIXT-MAIN-0',  /
&SURF ID='A-WALL-BAY-BK-0',   RGB=128, 64, 64, /
&SURF ID='A-CEIL-BAY-0',  /
&SURF ID='A-WALL-BAY-0',  /
&SURF ID='A-WALL-MAIN-0',  /
&SURF ID='A-WALL-MAIN-1',  /
&SURF ID='A-WALL-MAIN-2',  /
&SURF ID='A-DOOR-STND-0',  /
&SURF ID='A-WALL-MAIN-3',  /
&SURF ID='A-WALL-MAIN-WS-0',   RGB=167, 174, 182,  TEXTURE_MAP = 'C:\NIST\TEXTUREFILES\T0006765.JPG'  TEXTURE_HEIGHT = 1.524,  TEXTURE_WIDTH = 1.524, /
&SURF ID='A-DOOR-STND-1',  /
&SURF ID='A-WALL-MAIN-4',  /
&SURF ID='A-HRAL-NWEL-0',  /
&SURF ID='A-HRAL-RAIL-0',  /
&SURF ID='A-HRAL-BLST-0',  /
&SURF ID='A-HRAL-NWEL-1',  /
&SURF ID='A-HRAL-RAIL-1',  /
&SURF ID='A-HRAL-BLST-1',  /
&SURF ID='A-WALL-MAIN-5',  /
&SURF ID='A-WALL-MAIN-6',  /
&SURF ID='A-WDWK-BAY-0',  /
&SURF ID='A-WDWK-BAY-1',  /
&SURF ID='A-NONE-NONE-0',  /
&SURF ID='A-RISR-MAIN-0',  /
&SURF ID='A-STRS-UNDR-0',  /
&SURF ID='A-STRS-TRED-0',  /
&SURF ID='A-HRAL-BAL-0',   RGB=0, 128, 64, /
&SURF ID='C-PROP-TERA-0',   RGB=0, 128, 64, /
&SURF ID='C-PROP-TRSK-0',   RGB=0, 128, 64, /
&SURF ID='C-PROP-ROAD-CN-0',  /
&SURF ID='A-NONE-NONE-1',  /
&SURF ID='A-NONE-NONE-2',  /
&SURF ID='A-APPL-MAIN-0',  /
&SURF ID='A-APPL-MAIN-1',   RGB=184, 184, 184,  TEXTURE_MAP = 'C:\NIST\TEXTUREFILES\605.JPG'  TEXTURE_HEIGHT = 0.508,  TEXTURE_WIDTH = 0.508, /
&SURF ID='A-APPL-MAIN-2',   RGB=184, 184, 184,  TEXTURE_MAP = 'C:\NIST\TEXTUREFILES\605.JPG'  TEXTURE_HEIGHT = 0.508,  TEXTURE_WIDTH = 0.508, /
&SURF ID='A-CASE-TOEA-0',  /
&SURF ID='A-CASE-CABN-0',  /
&SURF ID='A-CASE-CABF-0',  /
&SURF ID='A-FIXT-MAIN-1',   RGB=184, 184, 184,  TEXTURE_MAP = 'C:\NIST\TEXTUREFILES\605.JPG'  TEXTURE_HEIGHT = 0.508,  TEXTURE_WIDTH = 0.508, /
&SURF ID='A-FIXT-MAIN-2',   RGB=184, 184, 184,  TEXTURE_MAP = 'C:\NIST\TEXTUREFILES\605.JPG'  TEXTURE_HEIGHT = 0.508,  TEXTURE_WIDTH = 0.508, /
&SURF ID='A-CASE-CNTR-0',  /
&SURF ID='A-NONE-NONE-3',  /
&SURF ID='A-CASE-CNTR-1',  /
&SURF ID='A-CASE-TOEA-1',  /
&SURF ID='A-CASE-CABN-1',  /
&SURF ID='A-APPL-MAIN-3',  /
&SURF ID='A-CASE-SOFF-0',  /
&SURF ID='A-CASE-CABN-2',  /
&SURF ID='A-CASE-CNTR-2',  /
&SURF ID='A-NONE-NONE-4',  /
&SURF ID='A-CASE-CABF-1',  /
&SURF ID='A-CASE-SOFF-BK-0',   RGB=128, 64, 64, /
&SURF ID='A-CASE-SOFF-1',  /
&SURF ID='A-CASE-SOFF-2',  /
&SURF ID='A-FURN-MAIN-0',  /
&SURF ID='A-FURN-MAIN-1',  /
&SURF ID='E-ELEC-TRIM-0',  /
&SURF ID='E-ELEC-TRIM-1',  /
&SURF ID='E-ELEC-TRIM-2',  /
&SURF ID='A-NONE-NONE-5',  /
&SURF ID='A-FLOR-MAIN-3',  /
&SURF ID='A-FLOR-MAIN-CP-0',  /
&SURF ID='A-WALL-MAIN-7',  /
&SURF ID='A-WALL-PONY-SR-0',  /
&SURF ID='A-WALL-PONY-0',  /
&SURF ID='A-FURN-MAIN-2',  /
&SURF ID='A-FURN-MAIN-3',  /

******************************************
Obstructions


&OBST XB=-6.53733807467615,11.7125984251969,-9.72186944373889,-7.89306578613157,-0.228600457200914,-0.228600457200914,   SURF_ID='A-CEIL-MAIN-0' / 0
&OBST XB=-6.53733807467615,11.7125984251969,-9.72186944373889,-7.89306578613157,2.43840487680975,2.43840487680975,   SURF_ID='A-CEIL-MAIN-0' / 1
&OBST XB=-6.53733807467615,-4.70853441706883,-9.72186944373889,-7.15539770923292,-0.228600457200914,-0.228600457200914,   SURF_ID='A-CEIL-MAIN-0' / 2
&OBST XB=-6.53733807467615,-4.70853441706883,-9.72186944373889,-6.30711406991662,2.43840487680975,2.43840487680975,   SURF_ID='A-CEIL-MAIN-0' / 3
&OBST XB=9.92189484378969,11.7125984251969,-9.72186944373889,-0.680281057980329,-0.228600457200914,-0.228600457200914,   SURF_ID='A-CEIL-MAIN-0' / 4
&OBST XB=10.0022242097707,11.7125984251969,-9.72186944373889,-0.680281057980329,2.43840487680975,2.43840487680975,   SURF_ID='A-CEIL-MAIN-0' / 5
&OBST XB=-15.6813563627127,-8.60109220218441,-8.58521717043434,-4.69265938531877,2.43840487680975,2.43840487680975,   SURF_ID='A-CEIL-MAIN-0' / 6
&OBST XB=-13.1051611712598,-11.1777160505005,-8.58521717043434,-2.61692069404647,5.79756159512319,5.79756159512319,   SURF_ID='A-CEIL-MAIN-0' / 7
&OBST XB=-15.4781559563119,-8.80429260858522,-8.38201676403353,-4.69265938531877,-0.304800609601219,-0.304800609601219,   SURF_ID='A-CEIL-MAIN-0' / 8
&OBST XB=-15.4781559563119,-8.80659789884033,-8.38201676403353,0.203200406400813,-0.304800609601219,-0.304800609601219,   SURF_ID='A-CEIL-MAIN-0' / 9
&OBST XB=-4.70853441706883,10.0022242097707,-7.89306578613157,-6.04838709677419,2.43840487680975,2.43840487680975,   SURF_ID='A-CEIL-MAIN-0' / 10
&OBST XB=-6.43573787147574,-4.70853441706883,-7.89306578613157,-4.69265938531877,2.43840487680975,2.43840487680975,   SURF_ID='A-CEIL-MAIN-0' / 11
&OBST XB=-4.70853441706883,9.92189484378969,-7.89306578613157,-0.730251460502921,-0.311150622301245,-0.311150622301245,   SURF_ID='A-CEIL-MAIN-0' / 12
&OBST XB=2.00660401320803,10.0022242097707,-7.89306578613157,0.406400812801626,2.43840487680975,2.43840487680975,   SURF_ID='A-CEIL-MAIN-0' / 13
&OBST XB=-6.53733807467615,-4.70853441706883,-7.15539770923292,-0.730251460502921,-0.311150622301245,-0.311150622301245,   SURF_ID='A-CEIL-MAIN-0' / 14
&OBST XB=-4.70853441706883,-0.136525273050546,-6.04838709677419,-4.69265938531877,2.43840487680975,2.43840487680975,   SURF_ID='A-CEIL-MAIN-0' / 15
&OBST XB=-8.73761747523495,-4.70853441706883,-6.04838709677419,-0.730251460502921,-0.311150622301245,-0.311150622301245,   SURF_ID='A-CEIL-MAIN-0' / 16
&OBST XB=-8.60109220218441,-4.70853441706883,-5.94678689357379,-4.69265938531877,2.43840487680975,2.43840487680975,   SURF_ID='A-CEIL-MAIN-0' / 17
&OBST XB=3.47980695961392,5.11811023622047,-4.95618491236983,-2.00731947484403,5.18796037592075,5.18796037592075,   SURF_ID='A-CEIL-MAIN-0' / 18
&OBST XB=3.47980695961392,5.30542940968695,-4.86728473456947,-2.00731947484403,5.18796037592075,5.18796037592075,   SURF_ID='A-CEIL-MAIN-0' / 19
&OBST XB=-15.6813563627127,-4.70853441706883,-4.69265938531877,-0.730251460502921,2.43840487680975,2.43840487680975,   SURF_ID='A-CEIL-MAIN-0' / 20
&OBST XB=-4.70853441706883,-0.136525273050546,-4.69265938531877,-0.730251460502921,2.43840487680975,2.43840487680975,   SURF_ID='A-CEIL-MAIN-0' / 21
&OBST XB=-15.4781559563119,-8.80429260858522,-4.69265938531877,0.203200406400813,-0.304800609601219,-0.304800609601219,   SURF_ID='A-CEIL-MAIN-0' / 22
&OBST XB=-4.70853441706883,-0.136525273050546,-4.51414356808206,-2.97252140524789,6.15316230632461,6.15316230632461,   SURF_ID='A-CEIL-MAIN-0' / 23
&OBST XB=5.30542940968695,10.0022242097707,-4.51414356808206,-2.97252140524789,6.15316230632461,6.15316230632461,   SURF_ID='A-CEIL-MAIN-0' / 24
&OBST XB=-13.1051611712598,-11.0147876850929,-4.11892697869868,-2.61692069404647,5.79756159512319,5.79756159512319,   SURF_ID='A-CEIL-MAIN-0' / 25
&OBST XB=-10.5007877984506,-5.34353568707137,-3.49814153607799,-3.44199872664882,5.18796037592075,5.18796037592075,   SURF_ID='A-CEIL-MAIN-0' / 26
&OBST XB=-10.5007877984506,-5.34353568707137,-3.44199872664882,-2.85640112906202,5.18796037592075,5.18796037592075,   SURF_ID='A-CEIL-MAIN-0' / 27
&OBST XB=-13.1051611712598,-9.91518981328978,-3.06070592762523,-2.61692069404647,5.79756159512319,5.79756159512319,   SURF_ID='A-CEIL-MAIN-0' / 28
&OBST XB=-13.1051611712598,-4.70853441706883,-2.85640112906202,-2.61692069404647,5.79756159512319,5.79756159512319,   SURF_ID='A-CEIL-MAIN-0' / 29
&OBST XB=-4.70853441706883,7.21232923178737,-2.8511557023114,-0.730251460502921,2.43840487680975,2.43840487680975,   SURF_ID='A-CEIL-MAIN-0' / 30
&OBST XB=-13.1051611712598,-4.59105918211836,-2.76225552451105,-2.61692069404647,5.79756159512319,5.79756159512319,   SURF_ID='A-CEIL-MAIN-0' / 31
&OBST XB=-13.6340989356783,-11.0364189661485,-2.46380492760986,0.406400812801626,5.18796037592075,5.18796037592075,   SURF_ID='A-CEIL-MAIN-0' / 32
&OBST XB=3.58140716281433,5.30542940968695,-2.19710439420879,-2.00731947484403,5.18796037592075,5.18796037592075,   SURF_ID='A-CEIL-MAIN-0' / 33
&OBST XB=5.30542940968695,7.67081534163068,-2.19710439420879,-2.00731947484403,5.18796037592075,5.18796037592075,   SURF_ID='A-CEIL-MAIN-0' / 34
&OBST XB=-13.6340989356783,-10.6486868186139,-1.56210312420625,0.406400812801626,5.18796037592075,5.18796037592075,   SURF_ID='A-CEIL-MAIN-0' / 35
&OBST XB=-4.70853441706883,9.92189484378969,-0.730251460502921,0.406400812801626,-0.311150622301245,-0.311150622301245,   SURF_ID='A-CEIL-MAIN-0' / 36
&OBST XB=-15.6813563627127,-8.60109220218441,-0.730251460502921,0.406400812801626,2.43840487680975,2.43840487680975,   SURF_ID='A-CEIL-MAIN-0' / 37
&OBST XB=-4.70853441706883,10.0022242097707,-0.730251460502921,0.406400812801626,2.43840487680975,2.43840487680975,   SURF_ID='A-CEIL-MAIN-0' / 38
&OBST XB=-0.242161139153211,2.25511531040152,0.406400812801626,0.927101854203709,-0.311150622301245,-0.311150622301245,   SURF_ID='A-CEIL-MAIN-0' / 39
&OBST XB=-8.80429260858522,-8.80429260858522,-8.38201676403353,-4.69265938531877,-0.304800609601219,-0.203200406400813,   SURF_ID='A-PLAT-RIM-CN-0' / 40
&OBST XB=-15.4781559563119,-8.80429260858522,-8.38201676403353,-8.38201676403353,-0.304800609601219,-0.203200406400813,   SURF_ID='A-PLAT-RIM-CN-0' / 41
&OBST XB=-15.4781559563119,-15.4781559563119,-8.38201676403353,0.203200406400813,-0.304800609601219,-0.203200406400813,   SURF_ID='A-PLAT-RIM-CN-0' / 42
&OBST XB=-15.4781559563119,-8.80429260858522,0.203200406400813,0.203200406400813,-0.304800609601219,-0.203200406400813,   SURF_ID='A-PLAT-RIM-CN-0' / 43
&OBST XB=-8.80429260858522,-8.80429260858522,-0.831821336036471,0.203200406400813,-0.304800609601219,-0.203200406400813,   SURF_ID='A-PLAT-RIM-CN-0' / 44
&OBST XB=-8.9,-8.8,-4.8,-4.7,-0.4,-0.203200406400813,   SURF_ID='A-PLAT-RIM-CN-0' / 45
&OBST XB=-8.9,-8.8,-4.7,-4.6,-0.4,-0.203200406400813,   SURF_ID='A-PLAT-RIM-CN-0' / 46
&OBST XB=-8.9,-8.8,-4.6,-4.5,-0.4,-0.203200406400813,   SURF_ID='A-PLAT-RIM-CN-0' / 47
&OBST XB=-8.9,-8.8,-4.5,-4.2,-0.4,-0.203200406400813,   SURF_ID='A-PLAT-RIM-CN-0' / 48
&OBST XB=-8.9,-8.8,-4.2,-4.1,-0.4,-0.203200406400813,   SURF_ID='A-PLAT-RIM-CN-0' / 49
&OBST XB=-8.9,-8.8,-4.1,-4,-0.4,-0.203200406400813,   SURF_ID='A-PLAT-RIM-CN-0' / 50
&OBST XB=-8.9,-8.8,-4,-3.8,-0.4,-0.203200406400813,   SURF_ID='A-PLAT-RIM-CN-0' / 51
&OBST XB=-8.9,-8.8,-3.8,-3.6,-0.4,-0.203200406400813,   SURF_ID='A-PLAT-RIM-CN-0' / 52
&OBST XB=-8.9,-8.8,-3.6,-3.5,-0.4,-0.203200406400813,   SURF_ID='A-PLAT-RIM-CN-0' / 53
&OBST XB=-8.9,-8.8,-3.5,-3.3,-0.4,-0.203200406400813,   SURF_ID='A-PLAT-RIM-CN-0' / 54
&OBST XB=-8.9,-8.8,-3.3,-3.1,-0.4,-0.203200406400813,   SURF_ID='A-PLAT-RIM-CN-0' / 55
&OBST XB=-8.9,-8.8,-3.1,-3,-0.4,-0.203200406400813,   SURF_ID='A-PLAT-RIM-CN-0' / 56
&OBST XB=-8.9,-8.8,-3,-2.8,-0.4,-0.203200406400813,   SURF_ID='A-PLAT-RIM-CN-0' / 57
&OBST XB=-8.9,-8.8,-2.8,-2.6,-0.4,-0.203200406400813,   SURF_ID='A-PLAT-RIM-CN-0' / 58
&OBST XB=-8.9,-8.8,-2.6,-2.5,-0.4,-0.203200406400813,   SURF_ID='A-PLAT-RIM-CN-0' / 59
&OBST XB=-8.9,-8.8,-2.5,-2.3,-0.4,-0.203200406400813,   SURF_ID='A-PLAT-RIM-CN-0' / 60
&OBST XB=-8.9,-8.8,-2.3,-2.1,-0.4,-0.203200406400813,   SURF_ID='A-PLAT-RIM-CN-0' / 61
&OBST XB=-8.9,-8.8,-2.1,-2,-0.4,-0.203200406400813,   SURF_ID='A-PLAT-RIM-CN-0' / 62
&OBST XB=-8.9,-8.8,-2,-1.9,-0.4,-0.203200406400813,   SURF_ID='A-PLAT-RIM-CN-0' / 63
&OBST XB=-8.9,-8.8,-1.9,-1.8,-0.4,-0.203200406400813,   SURF_ID='A-PLAT-RIM-CN-0' / 64
&OBST XB=-8.9,-8.8,-1.8,-1.5,-0.4,-0.203200406400813,   SURF_ID='A-PLAT-RIM-CN-0' / 65
&OBST XB=-8.9,-8.8,-1.5,-1.4,-0.4,-0.203200406400813,   SURF_ID='A-PLAT-RIM-CN-0' / 66
&OBST XB=-8.9,-8.8,-1.4,-1.3,-0.4,-0.203200406400813,   SURF_ID='A-PLAT-RIM-CN-0' / 67
&OBST XB=-8.9,-8.8,-1.3,-1,-0.4,-0.203200406400813,   SURF_ID='A-PLAT-RIM-CN-0' / 68
&OBST XB=-8.9,-8.8,-1,-0.9,-0.4,-0.203200406400813,   SURF_ID='A-PLAT-RIM-CN-0' / 69
&OBST XB=-8.9,-8.8,-0.9,-0.700000000000001,-0.4,-0.203200406400813,   SURF_ID='A-PLAT-RIM-CN-0' / 70
&OBST XB=-15.4781559563119,-8.80659789884033,-8.38201676403353,-4.69265938531877,-0.203200406400813,-0.203200406400813,   SURF_ID='A-FLOR-MAIN-CN-0' / 71
&OBST XB=-15.4781559563119,-8.80429260858522,-4.69265938531877,-0.831821336036471,-0.203200406400813,-0.203200406400813,   SURF_ID='A-FLOR-MAIN-CN-0' / 72
&OBST XB=-15.4781559563119,-8.80429260858522,-0.831821336036471,0.203200406400813,-0.203200406400813,-0.203200406400813,   SURF_ID='A-FLOR-MAIN-CN-0' / 73
&OBST XB=-15.4781559563119,-8.80429260858522,-8.38201676403353,-4.69265938531877,-0.203200406400813,-0.203200406400813,   SURF_ID='A-FLOR-MAIN-CN-0' / 74
&OBST XB=-15.6813563627127,-8.60109220218441,-8.58521717043434,-8.58521717043434,-0.304800609601219,-0.139700279400559,   SURF_ID='A-WALL-MAIN-CN-0' / 75
&OBST XB=-8.60109220218441,-8.60109220218441,-8.58521717043434,-6.04838709677419,-0.304800609601219,-0.139700279400559,   SURF_ID='A-WALL-MAIN-CN-0' / 76
&OBST XB=-15.6813563627127,-15.6813563627127,-8.58521717043434,0.406400812801626,-0.304800609601219,-0.139700279400559,   SURF_ID='A-WALL-MAIN-CN-0' / 77
&OBST XB=-15.4781559563119,-8.80429260858522,-8.38201676403353,-8.38201676403353,-0.304800609601219,-0.139700279400559,   SURF_ID='A-WALL-MAIN-CN-0' / 78
&OBST XB=-8.80429260858522,-8.80429260858522,-8.38201676403353,-6.04838709677419,-0.304800609601219,-0.139700279400559,   SURF_ID='A-WALL-MAIN-CN-0' / 79
&OBST XB=-15.4781559563119,-15.4781559563119,-8.38201676403353,0.203200406400813,-0.304800609601219,-0.139700279400559,   SURF_ID='A-WALL-MAIN-CN-0' / 80
&OBST XB=-4.70853441706883,9.92189484378969,-7.89306578613157,-7.89306578613157,-1.09855219710439,-0.349250698501397,   SURF_ID='A-WALL-MAIN-CN-0' / 81
&OBST XB=9.92189484378969,9.92189484378969,-7.89306578613157,-6.22777495554991,-1.09855219710439,-0.996951993903988,   SURF_ID='A-WALL-MAIN-CN-0' / 82
&OBST XB=9.92189484378969,9.92189484378969,-7.89306578613157,-6.22777495554991,-0.99542795597432,-0.349250698501397,   SURF_ID='A-WALL-MAIN-CN-0' / 83
&OBST XB=-4.70853441706883,-4.70853441706883,-7.89306578613157,-4.69265938531877,-1.09855219710439,-0.349250698501397,   SURF_ID='A-WALL-MAIN-CN-0' / 84
&OBST XB=-4.50533401066802,9.71869443738887,-7.68986537973076,-7.68986537973076,-1.09855219710439,-0.349250698501397,   SURF_ID='A-WALL-MAIN-CN-0' / 85
&OBST XB=9.71869443738887,9.71869443738887,-7.68986537973076,-6.22777495554991,-1.09855219710439,-0.996951993903988,   SURF_ID='A-WALL-MAIN-CN-0' / 86
&OBST XB=9.71869443738887,9.71869443738887,-7.68986537973076,-6.22777495554991,-0.99542795597432,-0.349250698501397,   SURF_ID='A-WALL-MAIN-CN-0' / 87
&OBST XB=-4.50533401066802,-4.50533401066802,-7.68986537973076,-4.59105918211836,-1.09855219710439,-0.349250698501397,   SURF_ID='A-WALL-MAIN-CN-0' / 88
&OBST XB=9.71869443738887,9.71869443738887,-6.22777495554991,-4.70377190754382,-1.09855219710439,-0.349250698501397,   SURF_ID='A-WALL-MAIN-CN-0' / 89
&OBST XB=9.92189484378969,9.92189484378969,-6.22777495554991,-4.70377190754382,-1.09855219710439,-0.349250698501397,   SURF_ID='A-WALL-MAIN-CN-0' / 90
&OBST XB=9.71869443738887,9.71869443738887,-4.70377190754382,-3.78460756921514,-1.09855219710439,-0.996951993903988,   SURF_ID='A-WALL-MAIN-CN-0' / 91
&OBST XB=9.71869443738887,9.71869443738887,-4.70377190754382,-3.78460756921514,-0.99542795597432,-0.349250698501397,   SURF_ID='A-WALL-MAIN-CN-0' / 92
&OBST XB=9.92189484378969,9.92189484378969,-4.70377190754382,0.406400812801626,-1.09855219710439,-0.996951993903988,   SURF_ID='A-WALL-MAIN-CN-0' / 93
&OBST XB=9.92189484378969,9.92189484378969,-4.70377190754382,0.406400812801626,-0.99542795597432,-0.349250698501397,   SURF_ID='A-WALL-MAIN-CN-0' / 94
&OBST XB=-8.80429260858522,-4.70853441706883,-4.69265938531877,-4.69265938531877,-1.09855219710439,-0.349250698501397,   SURF_ID='A-WALL-MAIN-CN-0' / 95
&OBST XB=-8.7,-8.6,-4.6,-4.5,-1.2,-0.349250698501397,   SURF_ID='A-WALL-MAIN-CN-0' / 96
&OBST XB=-8.80653666214559,-8.80429260858522,-4.59099833299764,-0.831791008369615,-1.09855219710439,-0.349250698501397,   SURF_ID='A-WALL-MAIN-CN-0' / 97
&OBST XB=-8.7,-8.6,-4.5,-4.2,-1.2,-0.349250698501397,   SURF_ID='A-WALL-MAIN-CN-0' / 98
&OBST XB=-8.60327579419807,-4.60693421386843,-4.48945897891796,-4.48945897891796,-1.09855219710439,-0.349250698501397,   SURF_ID='A-WALL-MAIN-CN-0' / 99
&OBST XB=-8.7,-8.6,-4.2,-4.1,-1.2,-0.349250698501397,   SURF_ID='A-WALL-MAIN-CN-0' / 100
&OBST XB=-8.7,-8.6,-4.1,-4,-1.2,-0.349250698501397,   SURF_ID='A-WALL-MAIN-CN-0' / 101
&OBST XB=-8.7,-8.6,-4,-3.8,-1.2,-0.349250698501397,   SURF_ID='A-WALL-MAIN-CN-0' / 102
&OBST XB=-8.7,-8.6,-3.8,-3.6,-1.2,-0.349250698501397,   SURF_ID='A-WALL-MAIN-CN-0' / 103
&OBST XB=9.71869443738887,9.71869443738887,-3.69570739141478,0.203200406400813,-1.09855219710439,-0.349250698501397,   SURF_ID='A-WALL-MAIN-CN-0' / 104
&OBST XB=-8.7,-8.6,-3.6,-3.5,-1.2,-0.349250698501397,   SURF_ID='A-WALL-MAIN-CN-0' / 105
&OBST XB=-8.7,-8.6,-3.5,-3.3,-1.2,-0.349250698501397,   SURF_ID='A-WALL-MAIN-CN-0' / 106
&OBST XB=-8.7,-8.6,-3.3,-3.1,-1.2,-0.349250698501397,   SURF_ID='A-WALL-MAIN-CN-0' / 107
&OBST XB=-8.7,-8.6,-3.1,-3,-1.2,-0.349250698501397,   SURF_ID='A-WALL-MAIN-CN-0' / 108
&OBST XB=-8.7,-8.6,-3,-2.8,-1.2,-0.349250698501397,   SURF_ID='A-WALL-MAIN-CN-0' / 109
&OBST XB=-8.7,-8.6,-2.8,-2.6,-1.2,-0.349250698501397,   SURF_ID='A-WALL-MAIN-CN-0' / 110
&OBST XB=-8.7,-8.6,-2.6,-2.5,-1.2,-0.349250698501397,   SURF_ID='A-WALL-MAIN-CN-0' / 111
&OBST XB=-8.7,-8.6,-2.5,-2.3,-1.2,-0.349250698501397,   SURF_ID='A-WALL-MAIN-CN-0' / 112
&OBST XB=-8.7,-8.6,-2.3,-2.1,-1.2,-0.349250698501397,   SURF_ID='A-WALL-MAIN-CN-0' / 113
&OBST XB=-8.7,-8.6,-2.1,-2,-1.2,-0.349250698501397,   SURF_ID='A-WALL-MAIN-CN-0' / 114
&OBST XB=-8.7,-8.6,-2,-1.9,-1.2,-0.349250698501397,   SURF_ID='A-WALL-MAIN-CN-0' / 115
&OBST XB=-8.7,-8.6,-1.9,-1.8,-1.2,-0.349250698501397,   SURF_ID='A-WALL-MAIN-CN-0' / 116
&OBST XB=-8.7,-8.6,-1.8,-1.5,-1.2,-0.349250698501397,   SURF_ID='A-WALL-MAIN-CN-0' / 117
&OBST XB=-8.7,-8.6,-1.5,-1.4,-1.2,-0.349250698501397,   SURF_ID='A-WALL-MAIN-CN-0' / 118
&OBST XB=-8.7,-8.6,-1.4,-1.3,-1.2,-0.349250698501397,   SURF_ID='A-WALL-MAIN-CN-0' / 119
&OBST XB=-8.7,-8.6,-1.3,-1,-1.2,-0.349250698501397,   SURF_ID='A-WALL-MAIN-CN-0' / 120
&OBST XB=-8.7,-8.6,-1,-0.9,-1.2,-0.349250698501397,   SURF_ID='A-WALL-MAIN-CN-0' / 121
&OBST XB=-8.60115266373111,-4.60693421386843,-0.933451866903734,-0.933451866903734,-1.09855219710439,-0.349250698501397,   SURF_ID='A-WALL-MAIN-CN-0' / 122
&OBST XB=-8.7,-8.6,-0.9,-0.8,-1.2,-0.349250698501397,   SURF_ID='A-WALL-MAIN-CN-0' / 123
&OBST XB=-8.80429260858522,-8.80429260858522,-0.831851663703327,-0.730251460502921,-1.09855219710439,-0.349250698501397,   SURF_ID='A-WALL-MAIN-CN-0' / 124
&OBST XB=-4.50533401066802,-4.50533401066802,-0.831851663703327,0.203200406400813,-1.09855219710439,-0.349250698501397,   SURF_ID='A-WALL-MAIN-CN-0' / 125
&OBST XB=-8.60109220218441,-4.70853441706883,-0.730251460502921,-0.730251460502921,-1.09855219710439,-0.349250698501397,   SURF_ID='A-WALL-MAIN-CN-0' / 126
&OBST XB=-8.80429260858522,-8.80429260858522,-0.730251460502921,-0.602793966055461,-1.09855219710439,-0.139700279400559,   SURF_ID='A-WALL-MAIN-CN-0' / 127
&OBST XB=-8.60109220218441,-8.60109220218441,-0.730251460502921,-0.602793966055461,-1.09855219710439,-0.139700279400559,   SURF_ID='A-WALL-MAIN-CN-0' / 128
&OBST XB=-4.70853441706883,-4.70853441706883,-0.730251460502921,0.406400812801626,-1.09855219710439,-0.349250698501397,   SURF_ID='A-WALL-MAIN-CN-0' / 129
&OBST XB=-8.80429260858522,-8.80429260858522,-0.602793966055461,0.203200406400813,-0.304800609601219,-0.139700279400559,   SURF_ID='A-WALL-MAIN-CN-0' / 130
&OBST XB=-8.60109220218441,-8.60109220218441,-0.602793966055461,0.406400812801626,-0.304800609601219,-0.139700279400559,   SURF_ID='A-WALL-MAIN-CN-0' / 131
&OBST XB=-4.50533401066802,9.71869443738887,0.203200406400813,0.203200406400813,-1.09855219710439,-0.349250698501397,   SURF_ID='A-WALL-MAIN-CN-0' / 132
&OBST XB=-15.4781559563119,-8.80429260858522,0.203200406400813,0.203200406400813,-0.304800609601219,-0.139700279400559,   SURF_ID='A-WALL-MAIN-CN-0' / 133
&OBST XB=-4.70853441706883,9.92189484378969,0.406400812801626,0.406400812801626,-1.09855219710439,-0.349250698501397,   SURF_ID='A-WALL-MAIN-CN-0' / 134
&OBST XB=-15.6813563627127,-8.60109220218441,0.406400812801626,0.406400812801626,-0.304800609601219,-0.139700279400559,   SURF_ID='A-WALL-MAIN-CN-0' / 135
&OBST XB=-15.8083566167132,-8.4740919481839,-8.71221742443485,-8.71221742443485,-0.508001016002032,-0.304800609601219,   SURF_ID='A-FOOT-FOOT-CN-0' / 136
&OBST XB=-15.8083566167132,-8.4740919481839,-8.71221742443485,-8.25501651003302,-0.508001016002032,-0.508001016002032,   SURF_ID='A-FOOT-FOOT-CN-0' / 137
&OBST XB=-15.8083566167132,-8.4740919481839,-8.71221742443485,-8.25501651003302,-0.304800609601219,-0.304800609601219,   SURF_ID='A-FOOT-FOOT-CN-0' / 138
&OBST XB=-8.93129286258573,-8.4740919481839,-8.71221742443485,-4.81965963931928,-0.508001016002032,-0.508001016002032,   SURF_ID='A-FOOT-FOOT-CN-0' / 139
&OBST XB=-8.4740919481839,-8.4740919481839,-8.71221742443485,-4.69265938531877,-0.508001016002032,-0.304800609601219,   SURF_ID='A-FOOT-FOOT-CN-0' / 140
&OBST XB=-8.93129286258573,-8.4740919481839,-8.71221742443485,-4.69265938531877,-0.304800609601219,-0.304800609601219,   SURF_ID='A-FOOT-FOOT-CN-0' / 141
&OBST XB=-15.8083566167132,-15.3511557023114,-8.71221742443485,0.533401066802134,-0.508001016002032,-0.508001016002032,   SURF_ID='A-FOOT-FOOT-CN-0' / 142
&OBST XB=-15.8083566167132,-15.8083566167132,-8.71221742443485,0.533401066802134,-0.508001016002032,-0.304800609601219,   SURF_ID='A-FOOT-FOOT-CN-0' / 143
&OBST XB=-15.8083566167132,-15.3511557023114,-8.71221742443485,0.533401066802134,-0.304800609601219,-0.304800609601219,   SURF_ID='A-FOOT-FOOT-CN-0' / 144
&OBST XB=-15.6813563627127,-8.60109220218441,-8.58521717043434,-8.38201676403353,-0.139700279400559,-0.139700279400559,   SURF_ID='A-FOOT-FOOT-CN-0' / 145
&OBST XB=-8.80429260858522,-8.60109220218441,-8.58521717043434,-6.04838709677419,-0.139700279400559,-0.139700279400559,   SURF_ID='A-FOOT-FOOT-CN-0' / 146
&OBST XB=-15.6813563627127,-15.4781559563119,-8.58521717043434,0.406400812801626,-0.139700279400559,-0.139700279400559,   SURF_ID='A-FOOT-FOOT-CN-0' / 147
&OBST XB=-15.3511557023114,-8.93129286258573,-8.25501651003302,-8.25501651003302,-0.508001016002032,-0.304800609601219,   SURF_ID='A-FOOT-FOOT-CN-0' / 148
&OBST XB=-8.93129286258573,-8.93129286258573,-8.25501651003302,-4.69265938531877,-0.508001016002032,-0.304800609601219,   SURF_ID='A-FOOT-FOOT-CN-0' / 149
&OBST XB=-15.3511557023114,-15.3511557023114,-8.25501651003302,0.0762001524003048,-0.508001016002032,-0.304800609601219,   SURF_ID='A-FOOT-FOOT-CN-0' / 150
&OBST XB=-4.83553467106934,10.0488950977902,-8.02006604013208,-8.02006604013208,-1.30175260350521,-1.09855219710439,   SURF_ID='A-FOOT-FOOT-CN-0' / 151
&OBST XB=-4.83553467106934,10.0488950977902,-8.02006604013208,-7.56286512573025,-1.30175260350521,-1.30175260350521,   SURF_ID='A-FOOT-FOOT-CN-0' / 152
&OBST XB=-4.83553467106934,10.0488950977902,-8.02006604013208,-7.56286512573025,-1.09855219710439,-1.09855219710439,   SURF_ID='A-FOOT-FOOT-CN-0' / 153
&OBST XB=-4.83553467106934,-4.83553467106934,-8.02006604013208,-4.81965963931928,-1.30175260350521,-1.09855219710439,   SURF_ID='A-FOOT-FOOT-CN-0' / 154
&OBST XB=-4.83553467106934,-4.37833375666751,-8.02006604013208,-4.59105918211836,-1.30175260350521,-1.30175260350521,   SURF_ID='A-FOOT-FOOT-CN-0' / 155
&OBST XB=-4.83553467106934,-4.37833375666751,-8.02006604013208,-4.59105918211836,-1.09855219710439,-1.09855219710439,   SURF_ID='A-FOOT-FOOT-CN-0' / 156
&OBST XB=9.59169418338837,10.0488950977902,-8.02006604013208,-3.96875793751588,-1.09855219710439,-1.09855219710439,   SURF_ID='A-FOOT-FOOT-CN-0' / 157
&OBST XB=9.59169418338837,10.0488950977902,-8.02006604013208,0.533401066802134,-1.30175260350521,-1.30175260350521,   SURF_ID='A-FOOT-FOOT-CN-0' / 158
&OBST XB=10.0488950977902,10.0488950977902,-8.02006604013208,0.533401066802134,-1.30175260350521,-1.09855219710439,   SURF_ID='A-FOOT-FOOT-CN-0' / 159
&OBST XB=-4.70853441706883,9.92189484378969,-7.89306578613157,-7.68986537973076,-0.349250698501397,-0.349250698501397,   SURF_ID='A-FOOT-FOOT-CN-0' / 160
&OBST XB=-4.70853441706883,-4.50533401066802,-7.89306578613157,-4.48945897891796,-0.349250698501397,-0.349250698501397,   SURF_ID='A-FOOT-FOOT-CN-0' / 161
&OBST XB=9.71869443738887,9.92189484378969,-7.89306578613157,-3.69570739141478,-0.349250698501397,-0.349250698501397,   SURF_ID='A-FOOT-FOOT-CN-0' / 162
&OBST XB=-4.37833375666751,9.59169418338837,-7.56286512573025,-7.56286512573025,-1.30175260350521,-1.09855219710439,   SURF_ID='A-FOOT-FOOT-CN-0' / 163
&OBST XB=-4.37833375666751,-4.37833375666751,-7.56286512573025,-4.59105918211836,-1.30175260350521,-1.09855219710439,   SURF_ID='A-FOOT-FOOT-CN-0' / 164
&OBST XB=9.59169418338837,9.59169418338837,-7.56286512573025,-3.96875793751588,-1.30175260350521,-1.09855219710439,   SURF_ID='A-FOOT-FOOT-CN-0' / 165
&OBST XB=-8.80429260858522,-8.60109220218441,-6.04838709677419,-6.04838709677419,-0.349250698501397,-0.139700279400559,   SURF_ID='A-FOOT-FOOT-CN-0' / 166
&OBST XB=-8.80429260858522,-8.60109220218441,-6.04838709677419,-4.69265938531877,-0.349250698501397,-0.349250698501397,   SURF_ID='A-FOOT-FOOT-CN-0' / 167
&OBST XB=-8.93129286258573,-8.4740919481839,-4.81965963931928,-4.81965963931928,-1.30175260350521,-1.09855219710439,   SURF_ID='A-FOOT-FOOT-CN-0' / 168
&OBST XB=-8.4740919481839,-4.83553467106934,-4.81965963931928,-4.81965963931928,-1.30175260350521,-1.09855219710439,   SURF_ID='A-FOOT-FOOT-CN-0' / 169
&OBST XB=-8.9336733422002,-8.47619957569017,-4.81965963931928,-4.36245872491745,-1.30175260350521,-1.30175260350521,   SURF_ID='A-FOOT-FOOT-CN-0' / 170
&OBST XB=-8.4740919481839,-4.83553467106934,-4.81965963931928,-4.36245872491745,-1.30175260350521,-1.30175260350521,   SURF_ID='A-FOOT-FOOT-CN-0' / 171
&OBST XB=-4.83553467106934,-4.33388366776734,-4.81965963931928,-4.36245872491745,-1.30175260350521,-1.30175260350521,   SURF_ID='A-FOOT-FOOT-CN-0' / 172
&OBST XB=-8.9336733422002,-4.33388366776734,-4.81965963931928,-4.36245872491745,-1.09855219710439,-1.09855219710439,   SURF_ID='A-FOOT-FOOT-CN-0' / 173
&OBST XB=-8.80659789884033,-4.60693421386843,-4.69265938531877,-4.48945897891796,-0.349250698501397,-0.349250698501397,   SURF_ID='A-FOOT-FOOT-CN-0' / 174
&OBST XB=-4.79108458216917,-4.33388366776734,-4.59105918211836,-4.36245872491745,-1.09855219710439,-1.09855219710439,   SURF_ID='A-FOOT-FOOT-CN-0' / 175
&OBST XB=-4.33388366776734,-4.33388366776734,-4.59105918211836,-3.96875793751588,-1.30175260350521,-1.09855219710439,   SURF_ID='A-FOOT-FOOT-CN-0' / 176
&OBST XB=-4.61963423926848,-4.51803403606807,-4.59105918211836,-3.69570739141478,-0.311150622301245,-0.311150622301245,   SURF_ID='A-FOOT-FOOT-CN-0' / 177
&OBST XB=-4.79108458216917,-4.33388366776734,-4.59105918211836,-0.831851663703327,-1.30175260350521,-1.30175260350521,   SURF_ID='A-FOOT-FOOT-CN-0' / 178
&OBST XB=-8.80653666214559,-8.60115266373111,-4.59099833299764,-0.831791008369615,-0.349250698501397,-0.349250698501397,   SURF_ID='A-FOOT-FOOT-CN-0' / 179