&HEAD CHID='fed_test', TITLE='Check FED computation in smokeview, SVN $Revision$'/

&MESH XB=0.0,3.0,0.0,3.0,0.0,3.0, IJK=10,10,10 /

&TIME T_END=0.1, DT=0.1 /

&INIT XB= 0.0, 1.0, 0.0, 1.0, 0.0, 1.0, TEMPERATURE=111.  /

&SLCF PBY=1.5,QUANTITY='VOLUME FRACTION' SPEC_ID='CARBON DIOXIDE' /
&SLCF PBY=1.5,QUANTITY='VOLUME FRACTION' SPEC_ID='CARBON MONOXIDE' /
&SLCF PBY=1.5,QUANTITY='VOLUME FRACTION' SPEC_ID='OXYGEN' /

&TAIL /
