&HEAD CHID='fed_test', TITLE='Check FED computation in smokeview, SVN $Revision$'/

&MESH XB=0.0,1.0,0.0,1.0,0.0,1.0, IJK=3,3,3 /

&TIME T_END=360.0, DT=0.1 /
&DUMP NFRAMES=2880 /

&SPEC ID='NITROGEN', BACKGROUND=.TRUE. /
&SPEC ID='OXYGEN' /
&SPEC ID='CARBON DIOXIDE' /
&SPEC ID='CARBON MONOXIDE'/

&INIT XB=0.0,1.0,0.0,1.0,0.0,1.0 
      MASS_FRACTION(1)=0.043695, SPEC_ID(1)='OXYGEN',
      MASS_FRACTION(2)=0.106455,SPEC_ID(2)='CARBON DIOXIDE' 
      MASS_FRACTION(3)=0.001912,SPEC_ID(3)='CARBON MONOXIDE' /


&SLCF PBY=0.5,QUANTITY='VOLUME FRACTION' SPEC_ID='CARBON DIOXIDE' /
&SLCF PBY=0.5,QUANTITY='VOLUME FRACTION' SPEC_ID='CARBON MONOXIDE' /
&SLCF PBY=0.5,QUANTITY='VOLUME FRACTION' SPEC_ID='OXYGEN' /
&SLCF PBY=0.5,QUANTITY='VOLUME FRACTION' SPEC_ID='CARBON DIOXIDE', CELL_CENTERED=.TRUE. /
&SLCF PBY=0.5,QUANTITY='VOLUME FRACTION' SPEC_ID='CARBON MONOXIDE', CELL_CENTERED=.TRUE. /
&SLCF PBY=0.5,QUANTITY='VOLUME FRACTION' SPEC_ID='OXYGEN', CELL_CENTERED=.TRUE. /

&TAIL /
