&HEAD CHID='fed_test_area4', TITLE='Check FED computation in smokeview, SVN $Revision: 12143 $'/

&MESH XB=0.0,0.9,0.0,0.1,0.0,1.2, IJK=9,1,12 /

&TIME T_END=360.0, DT=0.1 /
&DUMP NFRAMES=2880 /

&SPEC ID='NITROGEN', BACKGROUND=.TRUE. /
&SPEC ID='OXYGEN' /
&SPEC ID='CARBON DIOXIDE' /
&SPEC ID='CARBON MONOXIDE'/

&INIT XB=0.0,0.9,0.0,0.1,0.0,1.2,
      MASS_FRACTION(1)=0.078322, SPEC_ID(1)='OXYGEN',
      MASS_FRACTION(2)=0.030769,SPEC_ID(2)='CARBON DIOXIDE' 
      MASS_FRACTION(3)=0.000979,SPEC_ID(3)='CARBON MONOXIDE' /

&OBST XB = 0.3,0.5,0.0,0.1,0.3,0.6, COLOR='COBALT GREEN'  /


&SLCF PBY=0.05,QUANTITY='VOLUME FRACTION' SPEC_ID='CARBON DIOXIDE' /
&SLCF PBY=0.05,QUANTITY='VOLUME FRACTION' SPEC_ID='CARBON MONOXIDE' /
&SLCF PBY=0.05,QUANTITY='VOLUME FRACTION' SPEC_ID='OXYGEN' /
&SLCF PBY=0.05,QUANTITY='VOLUME FRACTION' SPEC_ID='CARBON DIOXIDE', CELL_CENTERED=.TRUE. /
&SLCF PBY=0.05,QUANTITY='VOLUME FRACTION' SPEC_ID='CARBON MONOXIDE', CELL_CENTERED=.TRUE. /
&SLCF PBY=0.05,QUANTITY='VOLUME FRACTION' SPEC_ID='OXYGEN', CELL_CENTERED=.TRUE. /

&TAIL /
