&HEAD CHID='fed_test', TITLE='Check FED computation in smokeview, SVN $Revision$'/

&MESH XB=0.0,1.0,0.0,1.0,0.0,1.0, IJK=10,10,10 /

&TIME T_END=360.0, DT=0.1 /

&SPEC ID='NITROGEN', BACKGROUND=.TRUE. /
&SPEC ID='OXYGEN' /
&SPEC ID='CARBON DIOXIDE' /
&SPEC ID='CARBON MONOXIDE'/

&INIT XB=0.0,1.0,0.0,1.0,0.0,1.0,
      VOLUME_FRACTION(1)=0.04, SPEC_ID(1)='OXYGEN',
      VOLUME_FRACTION(2)=0.070875,SPEC_ID(2)='CARBON DIOXIDE' 
      VOLUME_FRACTION(3)=0.02,SPEC_ID(3)='CARBON MONOXIDE' /

&SLCF PBY=1.5,QUANTITY='VOLUME FRACTION' SPEC_ID='CARBON DIOXIDE' /
&SLCF PBY=1.5,QUANTITY='VOLUME FRACTION' SPEC_ID='CARBON MONOXIDE' /
&SLCF PBY=1.5,QUANTITY='VOLUME FRACTION' SPEC_ID='OXYGEN' /

&TAIL /
