&HEAD CHID='slicemask', TITLE='SLCF does not appear for CC slice near OBST'  /

&MESH IJK=30,10,10, XB=0,3,0,1,0,1 /

&TIME T_END=10 /

&SURF ID='BLOW', VEL=-1.0, TMP_FRONT=500 /

&OBST XB=1.0,2.0,0.3,0.7,0.6,0.7,COLOR='BLUE' /

&VENT MB='XMIN', SURF_ID='BLOW' /
&VENT MB='XMAX', SURF_ID='OPEN' /

&SLCF PBZ=0.65, QUANTITY='TEMPERATURE', CELL_CENTERED=.TRUE. /
&SLCF PBZ=0.65, QUANTITY='TEMPERATURE' /

&TAIL /