&HEAD CHID='smoke_test2', TITLE='Verify Smokeview Smoke3D Feature, SVN $Revision: 2155 $' /

&MESH IJK=40,40,40, XB=0.0,10.0,0.0,10.0,0.0,4.0 /

&TIME T_END=1.0 /

&SPEC ID='SOOT',MASS_FRACTION_0=0.00007967 /

&OBST XB=0.0,2.5, 0.4,0.5,0.0,4.0, RGB=255,255,255 / 
&OBST XB=0.0,4.0, 1.0,1.1,0.0,4.0, RGB=255,255,255 / 
&OBST XB=0.0,5.5, 2.0,2.1,0.0,4.0, RGB=255,255,255 / 
&OBST XB=0.0,7.0, 3.0,3.1,0.0,4.0, RGB=255,255,255 / 
&OBST XB=0.0,8.5, 4.1,4.2,0.0,4.0, RGB=255,255,255 / 
&OBST XB=0.0,10.0,5.2,5.3,0.0,4.0, RGB=255,255,255 / 

&SLCF PBX=5.0, QUANTITY='DENSITY',SPEC_ID='SOOT' /
&SLCF PBY=5.0, QUANTITY='DENSITY',SPEC_ID='SOOT' /
&SLCF PBZ=2.0, QUANTITY='DENSITY',SPEC_ID='SOOT' /

&PROP ID='smoketest' SMOKEVIEW_ID='smokesensor' /
&DEVC XYZ=1.75,0.30,2.00, QUANTITY='VISIBILITY', SPEC_ID='SOOT', ID='vis2' PROP_ID='smoketest' /
&DEVC XYZ=3.25,0.90,2.00, QUANTITY='VISIBILITY', SPEC_ID='SOOT', ID='vis3' PROP_ID='smoketest' /
&DEVC XYZ=4.75,1.90,2.00, QUANTITY='VISIBILITY', SPEC_ID='SOOT', ID='vis4' PROP_ID='smoketest' /
&DEVC XYZ=6.25,2.90,2.00, QUANTITY='VISIBILITY', SPEC_ID='SOOT', ID='vis5' PROP_ID='smoketest' /
&DEVC XYZ=7.75,4.00,2.00, QUANTITY='VISIBILITY', SPEC_ID='SOOT', ID='vis6' PROP_ID='smoketest' /
&DEVC XYZ=9.25,5.10,2.00, QUANTITY='VISIBILITY', SPEC_ID='SOOT', ID='vis7' PROP_ID='smoketest' /


&TAIL /

