&HEAD CHID='sprinkler_many',TITLE='many sprinkler case' /

test of video cards ability to display many (15*15*31=6975 to be exact) sprinklers
  (and fds's ability to handle many devices)

  run case with T_END=0.0

&MESH IJK=32,32,64, XB=0.0,1.6,0.0,1.6,0.0,3.2 /

&DUMP NFRAMES=200 /

&VENT XB=0.0,0.0,0.0,1.6,0.0,3.2,SURF_ID='OPEN'/
&VENT XB=1.6,1.6,0.0,1.6,0.0,3.2,SURF_ID='OPEN'/
&VENT XB=0.0,1.6,0.0,0.0,0.0,3.2,SURF_ID='OPEN'/
&VENT XB=0.0,1.6,1.6,1.6,0.0,3.2,SURF_ID='OPEN'/
&VENT XB=0.0,1.6,0.0,1.6,3.2,3.2,SURF_ID='OPEN'/
&SPEC ID='WATER VAPOR'/
&PART ID='water', SPEC_ID='WATER VAPOR', DIAMETER=500., SAMPLING_FACTOR=1 /

&PROP ID='Acme Sprinkler'
      QUANTITY='SPRINKLER LINK TEMPERATURE'
      FLOW_RATE=5.
      PARTICLE_VELOCITY=5.
      RTI=50.
      ACTIVATION_TEMPERATURE= 74.
      OFFSET= 0.05
      SPRAY_ANGLE=50.,55.
      PART_ID='water'
      SMOKEVIEW_ID='sprinkler_upright'
 /

&DEVC XYZ=0.10,0.1,0.1,  PROP_ID='Acme Sprinkler' /
&DEVC XYZ=0.20,0.1,0.1,  PROP_ID='Acme Sprinkler' /
&DEVC XYZ=0.30,0.1,0.1,  PROP_ID='Acme Sprinkler' /
&DEVC XYZ=0.40,0.1,0.1,  PROP_ID='Acme Sprinkler' /
&DEVC XYZ=0.50,0.1,0.1,  PROP_ID='Acme Sprinkler' /
&DEVC XYZ=0.60,0.1,0.1,  PROP_ID='Acme Sprinkler' /
&DEVC XYZ=0.70,0.1,0.1,  PROP_ID='Acme Sprinkler' /
&DEVC XYZ=0.80,0.1,0.1,  PROP_ID='Acme Sprinkler' /
&DEVC XYZ=0.90,0.1,0.1,  PROP_ID='Acme Sprinkler' /
&DEVC XYZ=1.00,0.1,0.1,  PROP_ID='Acme Sprinkler' /
&DEVC XYZ=1.10,0.1,0.1,  PROP_ID='Acme Sprinkler' /
&DEVC XYZ=1.20,0.1,0.1,  PROP_ID='Acme Sprinkler' /
&DEVC XYZ=1.30,0.1,0.1,  PROP_ID='Acme Sprinkler' /
&DEVC XYZ=1.40,0.1,0.1,  PROP_ID='Acme Sprinkler' /
&DEVC XYZ=1.50,0.1,0.1,  PROP_ID='Acme Sprinkler' /

&DEVC XYZ=0.10,0.2,0.1,  PROP_ID='Acme Sprinkler' /
&DEVC XYZ=0.20,0.2,0.1,  PROP_ID='Acme Sprinkler' /
&DEVC XYZ=0.30,0.2,0.1,  PROP_ID='Acme Sprinkler' /
&DEVC XYZ=0.40,0.2,0.1,  PROP_ID='Acme Sprinkler' /
&DEVC XYZ=0.50,0.2,0.1,  PROP_ID='Acme Sprinkler' /
&DEVC XYZ=0.60,0.2,0.1,  PROP_ID='Acme Sprinkler' /
&DEVC XYZ=0.70,0.2,0.1,  PROP_ID='Acme Sprinkler' /
&DEVC XYZ=0.80,0.2,0.1,  PROP_ID='Acme Sprinkler' /
&DEVC XYZ=0.90,0.2,0.1,  PROP_ID='Acme Sprinkler' /
&DEVC XYZ=1.00,0.2,0.1,  PROP_ID='Acme Sprinkler' /
&DEVC XYZ=1.10,0.2,0.1,  PROP_ID='Acme Sprinkler' /
&DEVC XYZ=1.20,0.2,0.1,  PROP_ID='Acme Sprinkler' /
&DEVC XYZ=1.30,0.2,0.1,  PROP_ID='Acme Sprinkler' /
&DEVC XYZ=1.40,0.2,0.1,  PROP_ID='Acme Sprinkler' /
&DEVC XYZ=1.50,0.2,0.1,  PROP_ID='Acme Sprinkler' /

&DEVC XYZ=0.10,0.3,0.1,  PROP_ID='Acme Sprinkler' /
&DEVC XYZ=0.20,0.3,0.1,  PROP_ID='Acme Sprinkler' /
&DEVC XYZ=0.30,0.3,0.1,  PROP_ID='Acme Sprinkler' /
&DEVC XYZ=0.40,0.3,0.1,  PROP_ID='Acme Sprinkler' /
&DEVC XYZ=0.50,0.3,0.1,  PROP_ID='Acme Sprinkler' /
&DEVC XYZ=0.60,0.3,0.1,  PROP_ID='Acme Sprinkler' /
&DEVC XYZ=0.70,0.3,0.1,  PROP_ID='Acme Sprinkler' /
&DEVC XYZ=0.80,0.3,0.1,  PROP_ID='Acme Sprinkler' /
&DEVC XYZ=0.90,0.3,0.1,  PROP_ID='Acme Sprinkler' /
&DEVC XYZ=1.00,0.3,0.1,  PROP_ID='Acme Sprinkler' /
&DEVC XYZ=1.10,0.3,0.1,  PROP_ID='Acme Sprinkler' /
&DEVC XYZ=1.20,0.3,0.1,  PROP_ID='Acme Sprinkler' /
&DEVC XYZ=1.30,0.3,0.1,  PROP_ID='Acme Sprinkler' /
&DEVC XYZ=1.40,0.3,0.1,  PROP_ID='Acme Sprinkler' /
&DEVC XYZ=1.50,0.3,0.1,  PROP_ID='Acme Sprinkler' /

&DEVC XYZ=0.10,0.4,0.1,  PROP_ID='Acme Sprinkler' /
&DEVC XYZ=0.20,0.4,0.1,  PROP_ID='Acme Sprinkler' /
&DEVC XYZ=0.30,0.4,0.1,  PROP_ID='Acme Sprinkler' /
&DEVC XYZ=0.40,0.4,0.1,  PROP_ID='Acme Sprinkler' /
&DEVC XYZ=0.50,0.4,0.1,  PROP_ID='Acme Sprinkler' /
&DEVC XYZ=0.60,0.4,0.1,  PROP_ID='Acme Sprinkler' /
&DEVC XYZ=0.70,0.4,0.1,  PROP_ID='Acme Sprinkler' /
&DEVC XYZ=0.80,0.4,0.1,  PROP_ID='Acme Sprinkler' /
&DEVC XYZ=0.90,0.4,0.1,  PROP_ID='Acme Sprinkler' /
&DEVC XYZ=1.00,0.4,0.1,  PROP_ID='Acme Sprinkler' /
&DEVC XYZ=1.10,0.4,0.1,  PROP_ID='Acme Sprinkler' /
&DEVC XYZ=1.20,0.4,0.1,  PROP_ID='Acme Sprinkler' /
&DEVC XYZ=1.30,0.4,0.1,  PROP_ID='Acme Sprinkler' /
&DEVC XYZ=1.40,0.4,0.1,  PROP_ID='Acme Sprinkler' /
&DEVC XYZ=1.50,0.4,0.1,  PROP_ID='Acme Sprinkler' /

&DEVC XYZ=0.10,0.5,0.1,  PROP_ID='Acme Sprinkler' /
&DEVC XYZ=0.20,0.5,0.1,  PROP_ID='Acme Sprinkler' /
&DEVC XYZ=0.30,0.5,0.1,  PROP_ID='Acme Sprinkler' /
&DEVC XYZ=0.40,0.5,0.1,  PROP_ID='Acme Sprinkler' /
&DEVC XYZ=0.50,0.5,0.1,  PROP_ID='Acme Sprinkler' /
&DEVC XYZ=0.60,0.5,0.1,  PROP_ID='Acme Sprinkler' /
&DEVC XYZ=0.70,0.5,0.1,  PROP_ID='Acme Sprinkler' /
&DEVC XYZ=0.80,0.5,0.1,  PROP_ID='Acme Sprinkler' /
&DEVC XYZ=0.90,0.5,0.1,  PROP_ID='Acme Sprinkler' /
&DEVC XYZ=1.00,0.5,0.1,  PROP_ID='Acme Sprinkler' /
&DEVC XYZ=1.10,0.5,0.1,  PROP_ID='Acme Sprinkler' /
&DEVC XYZ=1.20,0.5,0.1,  PROP_ID='Acme Sprinkler' /
&DEVC XYZ=1.30,0.5,0.1,  PROP_ID='Acme Sprinkler' /
&DEVC XYZ=1.40,0.5,0.1,  PROP_ID='Acme Sprinkler' /
&DEVC XYZ=1.50,0.5,0.1,  PROP_ID='Acme Sprinkler' /

&DEVC XYZ=0.10,0.6,0.1,  PROP_ID='Acme Sprinkler' /
&DEVC XYZ=0.20,0.6,0.1,  PROP_ID='Acme Sprinkler' /
&DEVC XYZ=0.30,0.6,0.1,  PROP_ID='Acme Sprinkler' /
&DEVC XYZ=0.40,0.6,0.1,  PROP_ID='Acme Sprinkler' /
&DEVC XYZ=0.50,0.6,0.1,  PROP_ID='Acme Sprinkler' /
&DEVC XYZ=0.60,0.6,0.1,  PROP_ID='Acme Sprinkler' /
&DEVC XYZ=0.70,0.6,0.1,  PROP_ID='Acme Sprinkler' /
&DEVC XYZ=0.80,0.6,0.1,  PROP_ID='Acme Sprinkler' /
&DEVC XYZ=0.90,0.6,0.1,  PROP_ID='Acme Sprinkler' /
&DEVC XYZ=1.00,0.6,0.1,  PROP_ID='Acme Sprinkler' /
&DEVC XYZ=1.10,0.6,0.1,  PROP_ID='Acme Sprinkler' /
&DEVC XYZ=1.20,0.6,0.1,  PROP_ID='Acme Sprinkler' /
&DEVC XYZ=1.30,0.6,0.1,  PROP_ID='Acme Sprinkler' /
&DEVC XYZ=1.40,0.6,0.1,  PROP_ID='Acme Sprinkler' /
&DEVC XYZ=1.50,0.6,0.1,  PROP_ID='Acme Sprinkler' /

&DEVC XYZ=0.10,0.7,0.1,  PROP_ID='Acme Sprinkler' /
&DEVC XYZ=0.20,0.7,0.1,  PROP_ID='Acme Sprinkler' /
&DEVC XYZ=0.30,0.7,0.1,  PROP_ID='Acme Sprinkler' /
&DEVC XYZ=0.40,0.7,0.1,  PROP_ID='Acme Sprinkler' /
&DEVC XYZ=0.50,0.7,0.1,  PROP_ID='Acme Sprinkler' /
&DEVC XYZ=0.60,0.7,0.1,  PROP_ID='Acme Sprinkler' /
&DEVC XYZ=0.70,0.7,0.1,  PROP_ID='Acme Sprinkler' /
&DEVC XYZ=0.80,0.7,0.1,  PROP_ID='Acme Sprinkler' /
&DEVC XYZ=0.90,0.7,0.1,  PROP_ID='Acme Sprinkler' /
&DEVC XYZ=1.00,0.7,0.1,  PROP_ID='Acme Sprinkler' /
&DEVC XYZ=1.10,0.7,0.1,  PROP_ID='Acme Sprinkler' /
&DEVC XYZ=1.20,0.7,0.1,  PROP_ID='Acme Sprinkler' /
&DEVC XYZ=1.30,0.7,0.1,  PROP_ID='Acme Sprinkler' /
&DEVC XYZ=1.40,0.7,0.1,  PROP_ID='Acme Sprinkler' /
&DEVC XYZ=1.50,0.7,0.1,  PROP_ID='Acme Sprinkler' /

&DEVC XYZ=0.10,0.8,0.1,  PROP_ID='Acme Sprinkler' /
&DEVC XYZ=0.20,0.8,0.1,  PROP_ID='Acme Sprinkler' /
&DEVC XYZ=0.30,0.8,0.1,  PROP_ID='Acme Sprinkler' /
&DEVC XYZ=0.40,0.8,0.1,  PROP_ID='Acme Sprinkler' /
&DEVC XYZ=0.50,0.8,0.1,  PROP_ID='Acme Sprinkler' /
&DEVC XYZ=0.60,0.8,0.1,  PROP_ID='Acme Sprinkler' /
&DEVC XYZ=0.70,0.8,0.1,  PROP_ID='Acme Sprinkler' /
&DEVC XYZ=0.80,0.8,0.1,  PROP_ID='Acme Sprinkler' /
&DEVC XYZ=0.90,0.8,0.1,  PROP_ID='Acme Sprinkler' /
&DEVC XYZ=1.00,0.8,0.1,  PROP_ID='Acme Sprinkler' /
&DEVC XYZ=1.10,0.8,0.1,  PROP_ID='Acme Sprinkler' /
&DEVC XYZ=1.20,0.8,0.1,  PROP_ID='Acme Sprinkler' /
&DEVC XYZ=1.30,0.8,0.1,  PROP_ID='Acme Sprinkler' /
&DEVC XYZ=1.40,0.8,0.1,  PROP_ID='Acme Sprinkler' /
&DEVC XYZ=1.50,0.8,0.1,  PROP_ID='Acme Sprinkler' /

&DEVC XYZ=0.10,0.9,0.1,  PROP_ID='Acme Sprinkler' /
&DEVC XYZ=0.20,0.9,0.1,  PROP_ID='Acme Sprinkler' /
&DEVC XYZ=0.30,0.9,0.1,  PROP_ID='Acme Sprinkler' /
&DEVC XYZ=0.40,0.9,0.1,  PROP_ID='Acme Sprinkler' /
&DEVC XYZ=0.50,0.9,0.1,  PROP_ID='Acme Sprinkler' /
&DEVC XYZ=0.60,0.9,0.1,  PROP_ID='Acme Sprinkler' /
&DEVC XYZ=0.70,0.9,0.1,  PROP_ID='Acme Sprinkler' /
&DEVC XYZ=0.80,0.9,0.1,  PROP_ID='Acme Sprinkler' /
&DEVC XYZ=0.90,0.9,0.1,  PROP_ID='Acme Sprinkler' /
&DEVC XYZ=1.00,0.9,0.1,  PROP_ID='Acme Sprinkler' /
&DEVC XYZ=1.10,0.9,0.1,  PROP_ID='Acme Sprinkler' /
&DEVC XYZ=1.20,0.9,0.1,  PROP_ID='Acme Sprinkler' /
&DEVC XYZ=1.30,0.9,0.1,  PROP_ID='Acme Sprinkler' /
&DEVC XYZ=1.40,0.9,0.1,  PROP_ID='Acme Sprinkler' /
&DEVC XYZ=1.50,0.9,0.1,  PROP_ID='Acme Sprinkler' /

&DEVC XYZ=0.10,1.0,0.1,  PROP_ID='Acme Sprinkler' /
&DEVC XYZ=0.20,1.0,0.1,  PROP_ID='Acme Sprinkler' /
&DEVC XYZ=0.30,1.0,0.1,  PROP_ID='Acme Sprinkler' /
&DEVC XYZ=0.40,1.0,0.1,  PROP_ID='Acme Sprinkler' /
&DEVC XYZ=0.50,1.0,0.1,  PROP_ID='Acme Sprinkler' /
&DEVC XYZ=0.60,1.0,0.1,  PROP_ID='Acme Sprinkler' /
&DEVC XYZ=0.70,1.0,0.1,  PROP_ID='Acme Sprinkler' /
&DEVC XYZ=0.80,1.0,0.1,  PROP_ID='Acme Sprinkler' /
&DEVC XYZ=0.90,1.0,0.1,  PROP_ID='Acme Sprinkler' /
&DEVC XYZ=1.00,1.0,0.1,  PROP_ID='Acme Sprinkler' /
&DEVC XYZ=1.10,1.0,0.1,  PROP_ID='Acme Sprinkler' /
&DEVC XYZ=1.20,1.0,0.1,  PROP_ID='Acme Sprinkler' /
&DEVC XYZ=1.30,1.0,0.1,  PROP_ID='Acme Sprinkler' /
&DEVC XYZ=1.40,1.0,0.1,  PROP_ID='Acme Sprinkler' /
&DEVC XYZ=1.50,1.0,0.1,  PROP_ID='Acme Sprinkler' /

&DEVC XYZ=0.10,1.1,0.1,  PROP_ID='Acme Sprinkler' /
&DEVC XYZ=0.20,1.1,0.1,  PROP_ID='Acme Sprinkler' /
&DEVC XYZ=0.30,1.1,0.1,  PROP_ID='Acme Sprinkler' /
&DEVC XYZ=0.40,1.1,0.1,  PROP_ID='Acme Sprinkler' /
&DEVC XYZ=0.50,1.1,0.1,  PROP_ID='Acme Sprinkler' /
&DEVC XYZ=0.60,1.1,0.1,  PROP_ID='Acme Sprinkler' /
&DEVC XYZ=0.70,1.1,0.1,  PROP_ID='Acme Sprinkler' /
&DEVC XYZ=0.80,1.1,0.1,  PROP_ID='Acme Sprinkler' /
&DEVC XYZ=0.90,1.1,0.1,  PROP_ID='Acme Sprinkler' /
&DEVC XYZ=1.00,1.1,0.1,  PROP_ID='Acme Sprinkler' /
&DEVC XYZ=1.10,1.1,0.1,  PROP_ID='Acme Sprinkler' /
&DEVC XYZ=1.20,1.1,0.1,  PROP_ID='Acme Sprinkler' /
&DEVC XYZ=1.30,1.1,0.1,  PROP_ID='Acme Sprinkler' /
&DEVC XYZ=1.40,1.1,0.1,  PROP_ID='Acme Sprinkler' /
&DEVC XYZ=1.50,1.1,0.1,  PROP_ID='Acme Sprinkler' /

&DEVC XYZ=0.10,1.2,0.1,  PROP_ID='Acme Sprinkler' /
&DEVC XYZ=0.20,1.2,0.1,  PROP_ID='Acme Sprinkler' /
&DEVC XYZ=0.30,1.2,0.1,  PROP_ID='Acme Sprinkler' /
&DEVC XYZ=0.40,1.2,0.1,  PROP_ID='Acme Sprinkler' /
&DEVC XYZ=0.50,1.2,0.1,  PROP_ID='Acme Sprinkler' /
&DEVC XYZ=0.60,1.2,0.1,  PROP_ID='Acme Sprinkler' /
&DEVC XYZ=0.70,1.2,0.1,  PROP_ID='Acme Sprinkler' /
&DEVC XYZ=0.80,1.2,0.1,  PROP_ID='Acme Sprinkler' /
&DEVC XYZ=0.90,1.2,0.1,  PROP_ID='Acme Sprinkler' /
&DEVC XYZ=1.00,1.2,0.1,  PROP_ID='Acme Sprinkler' /
&DEVC XYZ=1.10,1.2,0.1,  PROP_ID='Acme Sprinkler' /
&DEVC XYZ=1.20,1.2,0.1,  PROP_ID='Acme Sprinkler' /
&DEVC XYZ=1.30,1.2,0.1,  PROP_ID='Acme Sprinkler' /
&DEVC XYZ=1.40,1.2,0.1,  PROP_ID='Acme Sprinkler' /
&DEVC XYZ=1.50,1.2,0.1,  PROP_ID='Acme Sprinkler' /

&DEVC XYZ=0.10,1.3,0.1,  PROP_ID='Acme Sprinkler' /
&DEVC XYZ=0.20,1.3,0.1,  PROP_ID='Acme Sprinkler' /
&DEVC XYZ=0.30,1.3,0.1,  PROP_ID='Acme Sprinkler' /
&DEVC XYZ=0.40,1.3,0.1,  PROP_ID='Acme Sprinkler' /
&DEVC XYZ=0.50,1.3,0.1,  PROP_ID='Acme Sprinkler' /
&DEVC XYZ=0.60,1.3,0.1,  PROP_ID='Acme Sprinkler' /
&DEVC XYZ=0.70,1.3,0.1,  PROP_ID='Acme Sprinkler' /
&DEVC XYZ=0.80,1.3,0.1,  PROP_ID='Acme Sprinkler' /
&DEVC XYZ=0.90,1.3,0.1,  PROP_ID='Acme Sprinkler' /
&DEVC XYZ=1.00,1.3,0.1,  PROP_ID='Acme Sprinkler' /
&DEVC XYZ=1.10,1.3,0.1,  PROP_ID='Acme Sprinkler' /
&DEVC XYZ=1.20,1.3,0.1,  PROP_ID='Acme Sprinkler' /
&DEVC XYZ=1.30,1.3,0.1,  PROP_ID='Acme Sprinkler' /
&DEVC XYZ=1.40,1.3,0.1,  PROP_ID='Acme Sprinkler' /
&DEVC XYZ=1.50,1.3,0.1,  PROP_ID='Acme Sprinkler' /

&DEVC XYZ=0.10,1.4,0.1,  PROP_ID='Acme Sprinkler' /
&DEVC XYZ=0.20,1.4,0.1,  PROP_ID='Acme Sprinkler' /
&DEVC XYZ=0.30,1.4,0.1,  PROP_ID='Acme Sprinkler' /
&DEVC XYZ=0.40,1.4,0.1,  PROP_ID='Acme Sprinkler' /
&DEVC XYZ=0.50,1.4,0.1,  PROP_ID='Acme Sprinkler' /
&DEVC XYZ=0.60,1.4,0.1,  PROP_ID='Acme Sprinkler' /
&DEVC XYZ=0.70,1.4,0.1,  PROP_ID='Acme Sprinkler' /
&DEVC XYZ=0.80,1.4,0.1,  PROP_ID='Acme Sprinkler' /
&DEVC XYZ=0.90,1.4,0.1,  PROP_ID='Acme Sprinkler' /
&DEVC XYZ=1.00,1.4,0.1,  PROP_ID='Acme Sprinkler' /
&DEVC XYZ=1.10,1.4,0.1,  PROP_ID='Acme Sprinkler' /
&DEVC XYZ=1.20,1.4,0.1,  PROP_ID='Acme Sprinkler' /
&DEVC XYZ=1.30,1.4,0.1,  PROP_ID='Acme Sprinkler' /
&DEVC XYZ=1.40,1.4,0.1,  PROP_ID='Acme Sprinkler' /
&DEVC XYZ=1.50,1.4,0.1,  PROP_ID='Acme Sprinkler' /

&DEVC XYZ=0.10,1.5,0.1,  PROP_ID='Acme Sprinkler' /
&DEVC XYZ=0.20,1.5,0.1,  PROP_ID='Acme Sprinkler' /
&DEVC XYZ=0.30,1.5,0.1,  PROP_ID='Acme Sprinkler' /
&DEVC XYZ=0.40,1.5,0.1,  PROP_ID='Acme Sprinkler' /
&DEVC XYZ=0.50,1.5,0.1,  PROP_ID='Acme Sprinkler' /
&DEVC XYZ=0.60,1.5,0.1,  PROP_ID='Acme Sprinkler' /
&DEVC XYZ=0.70,1.5,0.1,  PROP_ID='Acme Sprinkler' /
&DEVC XYZ=0.80,1.5,0.1,  PROP_ID='Acme Sprinkler' /
&DEVC XYZ=0.90,1.5,0.1,  PROP_ID='Acme Sprinkler' /
&DEVC XYZ=1.00,1.5,0.1,  PROP_ID='Acme Sprinkler' /
&DEVC XYZ=1.10,1.5,0.1,  PROP_ID='Acme Sprinkler' /
&DEVC XYZ=1.20,1.5,0.1,  PROP_ID='Acme Sprinkler' /
&DEVC XYZ=1.30,1.5,0.1,  PROP_ID='Acme Sprinkler' /
&DEVC XYZ=1.40,1.5,0.1,  PROP_ID='Acme Sprinkler' /
&DEVC XYZ=1.50,1.5,0.1,  PROP_ID='Acme Sprinkler' /
xxxxx
&DEVC XYZ=0.10,0.1,0.2,  PROP_ID='Acme Sprinkler' /
&DEVC XYZ=0.20,0.1,0.2,  PROP_ID='Acme Sprinkler' /
&DEVC XYZ=0.30,0.1,0.2,  PROP_ID='Acme Sprinkler' /
&DEVC XYZ=0.40,0.1,0.2,  PROP_ID='Acme Sprinkler' /
&DEVC XYZ=0.50,0.1,0.2,  PROP_ID='Acme Sprinkler' /
&DEVC XYZ=0.60,0.1,0.2,  PROP_ID='Acme Sprinkler' /
&DEVC XYZ=0.70,0.1,0.2,  PROP_ID='Acme Sprinkler' /
&DEVC XYZ=0.80,0.1,0.2,  PROP_ID='Acme Sprinkler' /
&DEVC XYZ=0.90,0.1,0.2,  PROP_ID='Acme Sprinkler' /
&DEVC XYZ=1.00,0.1,0.2,  PROP_ID='Acme Sprinkler' /
&DEVC XYZ=1.10,0.1,0.2,  PROP_ID='Acme Sprinkler' /
&DEVC XYZ=1.20,0.1,0.2,  PROP_ID='Acme Sprinkler' /
&DEVC XYZ=1.30,0.1,0.2,  PROP_ID='Acme Sprinkler' /
&DEVC XYZ=1.40,0.1,0.2,  PROP_ID='Acme Sprinkler' /
&DEVC XYZ=1.50,0.1,0.2,  PROP_ID='Acme Sprinkler' /

&DEVC XYZ=0.10,0.2,0.2,  PROP_ID='Acme Sprinkler' /
&DEVC XYZ=0.20,0.2,0.2,  PROP_ID='Acme Sprinkler' /
&DEVC XYZ=0.30,0.2,0.2,  PROP_ID='Acme Sprinkler' /
&DEVC XYZ=0.40,0.2,0.2,  PROP_ID='Acme Sprinkler' /
&DEVC XYZ=0.50,0.2,0.2,  PROP_ID='Acme Sprinkler' /
&DEVC XYZ=0.60,0.2,0.2,  PROP_ID='Acme Sprinkler' /
&DEVC XYZ=0.70,0.2,0.2,  PROP_ID='Acme Sprinkler' /
&DEVC XYZ=0.80,0.2,0.2,  PROP_ID='Acme Sprinkler' /
&DEVC XYZ=0.90,0.2,0.2,  PROP_ID='Acme Sprinkler' /
&DEVC XYZ=1.00,0.2,0.2,  PROP_ID='Acme Sprinkler' /
&DEVC XYZ=1.10,0.2,0.2,  PROP_ID='Acme Sprinkler' /
&DEVC XYZ=1.20,0.2,0.2,  PROP_ID='Acme Sprinkler' /
&DEVC XYZ=1.30,0.2,0.2,  PROP_ID='Acme Sprinkler' /
&DEVC XYZ=1.40,0.2,0.2,  PROP_ID='Acme Sprinkler' /
&DEVC XYZ=1.50,0.2,0.2,  PROP_ID='Acme Sprinkler' /

&DEVC XYZ=0.10,0.3,0.2,  PROP_ID='Acme Sprinkler' /
&DEVC XYZ=0.20,0.3,0.2,  PROP_ID='Acme Sprinkler' /
&DEVC XYZ=0.30,0.3,0.2,  PROP_ID='Acme Sprinkler' /
&DEVC XYZ=0.40,0.3,0.2,  PROP_ID='Acme Sprinkler' /
&DEVC XYZ=0.50,0.3,0.2,  PROP_ID='Acme Sprinkler' /
&DEVC XYZ=0.60,0.3,0.2,  PROP_ID='Acme Sprinkler' /
&DEVC XYZ=0.70,0.3,0.2,  PROP_ID='Acme Sprinkler' /
&DEVC XYZ=0.80,0.3,0.2,  PROP_ID='Acme Sprinkler' /
&DEVC XYZ=0.90,0.3,0.2,  PROP_ID='Acme Sprinkler' /
&DEVC XYZ=1.00,0.3,0.2,  PROP_ID='Acme Sprinkler' /
&DEVC XYZ=1.10,0.3,0.2,  PROP_ID='Acme Sprinkler' /
&DEVC XYZ=1.20,0.3,0.2,  PROP_ID='Acme Sprinkler' /
&DEVC XYZ=1.30,0.3,0.2,  PROP_ID='Acme Sprinkler' /
&DEVC XYZ=1.40,0.3,0.2,  PROP_ID='Acme Sprinkler' /
&DEVC XYZ=1.50,0.3,0.2,  PROP_ID='Acme Sprinkler' /

&DEVC XYZ=0.10,0.4,0.2,  PROP_ID='Acme Sprinkler' /
&DEVC XYZ=0.20,0.4,0.2,  PROP_ID='Acme Sprinkler' /
&DEVC XYZ=0.30,0.4,0.2,  PROP_ID='Acme Sprinkler' /
&DEVC XYZ=0.40,0.4,0.2,  PROP_ID='Acme Sprinkler' /
&DEVC XYZ=0.50,0.4,0.2,  PROP_ID='Acme Sprinkler' /
&DEVC XYZ=0.60,0.4,0.2,  PROP_ID='Acme Sprinkler' /
&DEVC XYZ=0.70,0.4,0.2,  PROP_ID='Acme Sprinkler' /
&DEVC XYZ=0.80,0.4,0.2,  PROP_ID='Acme Sprinkler' /
&DEVC XYZ=0.90,0.4,0.2,  PROP_ID='Acme Sprinkler' /
&DEVC XYZ=1.00,0.4,0.2,  PROP_ID='Acme Sprinkler' /
&DEVC XYZ=1.10,0.4,0.2,  PROP_ID='Acme Sprinkler' /
&DEVC XYZ=1.20,0.4,0.2,  PROP_ID='Acme Sprinkler' /
&DEVC XYZ=1.30,0.4,0.2,  PROP_ID='Acme Sprinkler' /
&DEVC XYZ=1.40,0.4,0.2,  PROP_ID='Acme Sprinkler' /
&DEVC XYZ=1.50,0.4,0.2,  PROP_ID='Acme Sprinkler' /

&DEVC XYZ=0.10,0.5,0.2,  PROP_ID='Acme Sprinkler' /
&DEVC XYZ=0.20,0.5,0.2,  PROP_ID='Acme Sprinkler' /
&DEVC XYZ=0.30,0.5,0.2,  PROP_ID='Acme Sprinkler' /
&DEVC XYZ=0.40,0.5,0.2,  PROP_ID='Acme Sprinkler' /
&DEVC XYZ=0.50,0.5,0.2,  PROP_ID='Acme Sprinkler' /
&DEVC XYZ=0.60,0.5,0.2,  PROP_ID='Acme Sprinkler' /
&DEVC XYZ=0.70,0.5,0.2,  PROP_ID='Acme Sprinkler' /
&DEVC XYZ=0.80,0.5,0.2,  PROP_ID='Acme Sprinkler' /
&DEVC XYZ=0.90,0.5,0.2,  PROP_ID='Acme Sprinkler' /
&DEVC XYZ=1.00,0.5,0.2,  PROP_ID='Acme Sprinkler' /
&DEVC XYZ=1.10,0.5,0.2,  PROP_ID='Acme Sprinkler' /
&DEVC XYZ=1.20,0.5,0.2,  PROP_ID='Acme Sprinkler' /
&DEVC XYZ=1.30,0.5,0.2,  PROP_ID='Acme Sprinkler' /
&DEVC XYZ=1.40,0.5,0.2,  PROP_ID='Acme Sprinkler' /
&DEVC XYZ=1.50,0.5,0.2,  PROP_ID='Acme Sprinkler' /

&DEVC XYZ=0.10,0.6,0.2,  PROP_ID='Acme Sprinkler' /
&DEVC XYZ=0.20,0.6,0.2,  PROP_ID='Acme Sprinkler' /
&DEVC XYZ=0.30,0.6,0.2,  PROP_ID='Acme Sprinkler' /
&DEVC XYZ=0.40,0.6,0.2,  PROP_ID='Acme Sprinkler' /
&DEVC XYZ=0.50,0.6,0.2,  PROP_ID='Acme Sprinkler' /
&DEVC XYZ=0.60,0.6,0.2,  PROP_ID='Acme Sprinkler' /
&DEVC XYZ=0.70,0.6,0.2,  PROP_ID='Acme Sprinkler' /
&DEVC XYZ=0.80,0.6,0.2,  PROP_ID='Acme Sprinkler' /
&DEVC XYZ=0.90,0.6,0.2,  PROP_ID='Acme Sprinkler' /
&DEVC XYZ=1.00,0.6,0.2,  PROP_ID='Acme Sprinkler' /
&DEVC XYZ=1.10,0.6,0.2,  PROP_ID='Acme Sprinkler' /
&DEVC XYZ=1.20,0.6,0.2,  PROP_ID='Acme Sprinkler' /
&DEVC XYZ=1.30,0.6,0.2,  PROP_ID='Acme Sprinkler' /
&DEVC XYZ=1.40,0.6,0.2,  PROP_ID='Acme Sprinkler' /
&DEVC XYZ=1.50,0.6,0.2,  PROP_ID='Acme Sprinkler' /

&DEVC XYZ=0.10,0.7,0.2,  PROP_ID='Acme Sprinkler' /
&DEVC XYZ=0.20,0.7,0.2,  PROP_ID='Acme Sprinkler' /
&DEVC XYZ=0.30,0.7,0.2,  PROP_ID='Acme Sprinkler' /
&DEVC XYZ=0.40,0.7,0.2,  PROP_ID='Acme Sprinkler' /
&DEVC XYZ=0.50,0.7,0.2,  PROP_ID='Acme Sprinkler' /
&DEVC XYZ=0.60,0.7,0.2,  PROP_ID='Acme Sprinkler' /
&DEVC XYZ=0.70,0.7,0.2,  PROP_ID='Acme Sprinkler' /
&DEVC XYZ=0.80,0.7,0.2,  PROP_ID='Acme Sprinkler' /
&DEVC XYZ=0.90,0.7,0.2,  PROP_ID='Acme Sprinkler' /
&DEVC XYZ=1.00,0.7,0.2,  PROP_ID='Acme Sprinkler' /
&DEVC XYZ=1.10,0.7,0.2,  PROP_ID='Acme Sprinkler' /
&DEVC XYZ=1.20,0.7,0.2,  PROP_ID='Acme Sprinkler' /
&DEVC XYZ=1.30,0.7,0.2,  PROP_ID='Acme Sprinkler' /
&DEVC XYZ=1.40,0.7,0.2,  PROP_ID='Acme Sprinkler' /
&DEVC XYZ=1.50,0.7,0.2,  PROP_ID='Acme Sprinkler' /

&DEVC XYZ=0.10,0.8,0.2,  PROP_ID='Acme Sprinkler' /
&DEVC XYZ=0.20,0.8,0.2,  PROP_ID='Acme Sprinkler' /
&DEVC XYZ=0.30,0.8,0.2,  PROP_ID='Acme Sprinkler' /
&DEVC XYZ=0.40,0.8,0.2,  PROP_ID='Acme Sprinkler' /
&DEVC XYZ=0.50,0.8,0.2,  PROP_ID='Acme Sprinkler' /
&DEVC XYZ=0.60,0.8,0.2,  PROP_ID='Acme Sprinkler' /
&DEVC XYZ=0.70,0.8,0.2,  PROP_ID='Acme Sprinkler' /
&DEVC XYZ=0.80,0.8,0.2,  PROP_ID='Acme Sprinkler' /
&DEVC XYZ=0.90,0.8,0.2,  PROP_ID='Acme Sprinkler' /
&DEVC XYZ=1.00,0.8,0.2,  PROP_ID='Acme Sprinkler' /
&DEVC XYZ=1.10,0.8,0.2,  PROP_ID='Acme Sprinkler' /
&DEVC XYZ=1.20,0.8,0.2,  PROP_ID='Acme Sprinkler' /
&DEVC XYZ=1.30,0.8,0.2,  PROP_ID='Acme Sprinkler' /
&DEVC XYZ=1.40,0.8,0.2,  PROP_ID='Acme Sprinkler' /
&DEVC XYZ=1.50,0.8,0.2,  PROP_ID='Acme Sprinkler' /

&DEVC XYZ=0.10,0.9,0.2,  PROP_ID='Acme Sprinkler' /
&DEVC XYZ=0.20,0.9,0.2,  PROP_ID='Acme Sprinkler' /
&DEVC XYZ=0.30,0.9,0.2,  PROP_ID='Acme Sprinkler' /
&DEVC XYZ=0.40,0.9,0.2,  PROP_ID='Acme Sprinkler' /
&DEVC XYZ=0.50,0.9,0.2,  PROP_ID='Acme Sprinkler' /
&DEVC XYZ=0.60,0.9,0.2,  PROP_ID='Acme Sprinkler' /
&DEVC XYZ=0.70,0.9,0.2,  PROP_ID='Acme Sprinkler' /
&DEVC XYZ=0.80,0.9,0.2,  PROP_ID='Acme Sprinkler' /
&DEVC XYZ=0.90,0.9,0.2,  PROP_ID='Acme Sprinkler' /
&DEVC XYZ=1.00,0.9,0.2,  PROP_ID='Acme Sprinkler' /
&DEVC XYZ=1.10,0.9,0.2,  PROP_ID='Acme Sprinkler' /
&DEVC XYZ=1.20,0.9,0.2,  PROP_ID='Acme Sprinkler' /
&DEVC XYZ=1.30,0.9,0.2,  PROP_ID='Acme Sprinkler' /
&DEVC XYZ=1.40,0.9,0.2,  PROP_ID='Acme Sprinkler' /
&DEVC XYZ=1.50,0.9,0.2,  PROP_ID='Acme Sprinkler' /

&DEVC XYZ=0.10,1.0,0.2,  PROP_ID='Acme Sprinkler' /
&DEVC XYZ=0.20,1.0,0.2,  PROP_ID='Acme Sprinkler' /
&DEVC XYZ=0.30,1.0,0.2,  PROP_ID='Acme Sprinkler' /
&DEVC XYZ=0.40,1.0,0.2,  PROP_ID='Acme Sprinkler' /
&DEVC XYZ=0.50,1.0,0.2,  PROP_ID='Acme Sprinkler' /
&DEVC XYZ=0.60,1.0,0.2,  PROP_ID='Acme Sprinkler' /
&DEVC XYZ=0.70,1.0,0.2,  PROP_ID='Acme Sprinkler' /
&DEVC XYZ=0.80,1.0,0.2,  PROP_ID='Acme Sprinkler' /
&DEVC XYZ=0.90,1.0,0.2,  PROP_ID='Acme Sprinkler' /
&DEVC XYZ=1.00,1.0,0.2,  PROP_ID='Acme Sprinkler' /
&DEVC XYZ=1.10,1.0,0.2,  PROP_ID='Acme Sprinkler' /
&DEVC XYZ=1.20,1.0,0.2,  PROP_ID='Acme Sprinkler' /
&DEVC XYZ=1.30,1.0,0.2,  PROP_ID='Acme Sprinkler' /
&DEVC XYZ=1.40,1.0,0.2,  PROP_ID='Acme Sprinkler' /
&DEVC XYZ=1.50,1.0,0.2,  PROP_ID='Acme Sprinkler' /

&DEVC XYZ=0.10,1.1,0.2,  PROP_ID='Acme Sprinkler' /
&DEVC XYZ=0.20,1.1,0.2,  PROP_ID='Acme Sprinkler' /
&DEVC XYZ=0.30,1.1,0.2,  PROP_ID='Acme Sprinkler' /
&DEVC XYZ=0.40,1.1,0.2,  PROP_ID='Acme Sprinkler' /
&DEVC XYZ=0.50,1.1,0.2,  PROP_ID='Acme Sprinkler' /
&DEVC XYZ=0.60,1.1,0.2,  PROP_ID='Acme Sprinkler' /
&DEVC XYZ=0.70,1.1,0.2,  PROP_ID='Acme Sprinkler' /
&DEVC XYZ=0.80,1.1,0.2,  PROP_ID='Acme Sprinkler' /
&DEVC XYZ=0.90,1.1,0.2,  PROP_ID='Acme Sprinkler' /
&DEVC XYZ=1.00,1.1,0.2,  PROP_ID='Acme Sprinkler' /
&DEVC XYZ=1.10,1.1,0.2,  PROP_ID='Acme Sprinkler' /
&DEVC XYZ=1.20,1.1,0.2,  PROP_ID='Acme Sprinkler' /
&DEVC XYZ=1.30,1.1,0.2,  PROP_ID='Acme Sprinkler' /
&DEVC XYZ=1.40,1.1,0.2,  PROP_ID='Acme Sprinkler' /
&DEVC XYZ=1.50,1.1,0.2,  PROP_ID='Acme Sprinkler' /

&DEVC XYZ=0.10,1.2,0.2,  PROP_ID='Acme Sprinkler' /
&DEVC XYZ=0.20,1.2,0.2,  PROP_ID='Acme Sprinkler' /
&DEVC XYZ=0.30,1.2,0.2,  PROP_ID='Acme Sprinkler' /
&DEVC XYZ=0.40,1.2,0.2,  PROP_ID='Acme Sprinkler' /
&DEVC XYZ=0.50,1.2,0.2,  PROP_ID='Acme Sprinkler' /
&DEVC XYZ=0.60,1.2,0.2,  PROP_ID='Acme Sprinkler' /
&DEVC XYZ=0.70,1.2,0.2,  PROP_ID='Acme Sprinkler' /
&DEVC XYZ=0.80,1.2,0.2,  PROP_ID='Acme Sprinkler' /
&DEVC XYZ=0.90,1.2,0.2,  PROP_ID='Acme Sprinkler' /
&DEVC XYZ=1.00,1.2,0.2,  PROP_ID='Acme Sprinkler' /
&DEVC XYZ=1.10,1.2,0.2,  PROP_ID='Acme Sprinkler' /
&DEVC XYZ=1.20,1.2,0.2,  PROP_ID='Acme Sprinkler' /
&DEVC XYZ=1.30,1.2,0.2,  PROP_ID='Acme Sprinkler' /
&DEVC XYZ=1.40,1.2,0.2,  PROP_ID='Acme Sprinkler' /
&DEVC XYZ=1.50,1.2,0.2,  PROP_ID='Acme Sprinkler' /

&DEVC XYZ=0.10,1.3,0.2,  PROP_ID='Acme Sprinkler' /
&DEVC XYZ=0.20,1.3,0.2,  PROP_ID='Acme Sprinkler' /
&DEVC XYZ=0.30,1.3,0.2,  PROP_ID='Acme Sprinkler' /
&DEVC XYZ=0.40,1.3,0.2,  PROP_ID='Acme Sprinkler' /
&DEVC XYZ=0.50,1.3,0.2,  PROP_ID='Acme Sprinkler' /
&DEVC XYZ=0.60,1.3,0.2,  PROP_ID='Acme Sprinkler' /
&DEVC XYZ=0.70,1.3,0.2,  PROP_ID='Acme Sprinkler' /
&DEVC XYZ=0.80,1.3,0.2,  PROP_ID='Acme Sprinkler' /
&DEVC XYZ=0.90,1.3,0.2,  PROP_ID='Acme Sprinkler' /
&DEVC XYZ=1.00,1.3,0.2,  PROP_ID='Acme Sprinkler' /
&DEVC XYZ=1.10,1.3,0.2,  PROP_ID='Acme Sprinkler' /
&DEVC XYZ=1.20,1.3,0.2,  PROP_ID='Acme Sprinkler' /
&DEVC XYZ=1.30,1.3,0.2,  PROP_ID='Acme Sprinkler' /
&DEVC XYZ=1.40,1.3,0.2,  PROP_ID='Acme Sprinkler' /
&DEVC XYZ=1.50,1.3,0.2,  PROP_ID='Acme Sprinkler' /

&DEVC XYZ=0.10,1.4,0.2,  PROP_ID='Acme Sprinkler' /
&DEVC XYZ=0.20,1.4,0.2,  PROP_ID='Acme Sprinkler' /
&DEVC XYZ=0.30,1.4,0.2,  PROP_ID='Acme Sprinkler' /
&DEVC XYZ=0.40,1.4,0.2,  PROP_ID='Acme Sprinkler' /
&DEVC XYZ=0.50,1.4,0.2,  PROP_ID='Acme Sprinkler' /
&DEVC XYZ=0.60,1.4,0.2,  PROP_ID='Acme Sprinkler' /
&DEVC XYZ=0.70,1.4,0.2,  PROP_ID='Acme Sprinkler' /
&DEVC XYZ=0.80,1.4,0.2,  PROP_ID='Acme Sprinkler' /
&DEVC XYZ=0.90,1.4,0.2,  PROP_ID='Acme Sprinkler' /
&DEVC XYZ=1.00,1.4,0.2,  PROP_ID='Acme Sprinkler' /
&DEVC XYZ=1.10,1.4,0.2,  PROP_ID='Acme Sprinkler' /
&DEVC XYZ=1.20,1.4,0.2,  PROP_ID='Acme Sprinkler' /
&DEVC XYZ=1.30,1.4,0.2,  PROP_ID='Acme Sprinkler' /
&DEVC XYZ=1.40,1.4,0.2,  PROP_ID='Acme Sprinkler' /
&DEVC XYZ=1.50,1.4,0.2,  PROP_ID='Acme Sprinkler' /

&DEVC XYZ=0.10,1.5,0.2,  PROP_ID='Acme Sprinkler' /
&DEVC XYZ=0.20,1.5,0.2,  PROP_ID='Acme Sprinkler' /
&DEVC XYZ=0.30,1.5,0.2,  PROP_ID='Acme Sprinkler' /
&DEVC XYZ=0.40,1.5,0.2,  PROP_ID='Acme Sprinkler' /
&DEVC XYZ=0.50,1.5,0.2,  PROP_ID='Acme Sprinkler' /
&DEVC XYZ=0.60,1.5,0.2,  PROP_ID='Acme Sprinkler' /
&DEVC XYZ=0.70,1.5,0.2,  PROP_ID='Acme Sprinkler' /
&DEVC XYZ=0.80,1.5,0.2,  PROP_ID='Acme Sprinkler' /
&DEVC XYZ=0.90,1.5,0.2,  PROP_ID='Acme Sprinkler' /
&DEVC XYZ=1.00,1.5,0.2,  PROP_ID='Acme Sprinkler' /
&DEVC XYZ=1.10,1.5,0.2,  PROP_ID='Acme Sprinkler' /
&DEVC XYZ=1.20,1.5,0.2,  PROP_ID='Acme Sprinkler' /
&DEVC XYZ=1.30,1.5,0.2,  PROP_ID='Acme Sprinkler' /
&DEVC XYZ=1.40,1.5,0.2,  PROP_ID='Acme Sprinkler' /
&DEVC XYZ=1.50,1.5,0.2,  PROP_ID='Acme Sprinkler' /

&DEVC XYZ=0.10,0.1,0.3,  PROP_ID='Acme Sprinkler' /
&DEVC XYZ=0.20,0.1,0.3,  PROP_ID='Acme Sprinkler' /
&DEVC XYZ=0.30,0.1,0.3,  PROP_ID='Acme Sprinkler' /
&DEVC XYZ=0.40,0.1,0.3,  PROP_ID='Acme Sprinkler' /
&DEVC XYZ=0.50,0.1,0.3,  PROP_ID='Acme Sprinkler' /
&DEVC XYZ=0.60,0.1,0.3,  PROP_ID='Acme Sprinkler' /
&DEVC XYZ=0.70,0.1,0.3,  PROP_ID='Acme Sprinkler' /
&DEVC XYZ=0.80,0.1,0.3,  PROP_ID='Acme Sprinkler' /
&DEVC XYZ=0.90,0.1,0.3,  PROP_ID='Acme Sprinkler' /
&DEVC XYZ=1.00,0.1,0.3,  PROP_ID='Acme Sprinkler' /
&DEVC XYZ=1.10,0.1,0.3,  PROP_ID='Acme Sprinkler' /
&DEVC XYZ=1.20,0.1,0.3,  PROP_ID='Acme Sprinkler' /
&DEVC XYZ=1.30,0.1,0.3,  PROP_ID='Acme Sprinkler' /
&DEVC XYZ=1.40,0.1,0.3,  PROP_ID='Acme Sprinkler' /
&DEVC XYZ=1.50,0.1,0.3,  PROP_ID='Acme Sprinkler' /

&DEVC XYZ=0.10,0.2,0.3,  PROP_ID='Acme Sprinkler' /
&DEVC XYZ=0.20,0.2,0.3,  PROP_ID='Acme Sprinkler' /
&DEVC XYZ=0.30,0.2,0.3,  PROP_ID='Acme Sprinkler' /
&DEVC XYZ=0.40,0.2,0.3,  PROP_ID='Acme Sprinkler' /
&DEVC XYZ=0.50,0.2,0.3,  PROP_ID='Acme Sprinkler' /
&DEVC XYZ=0.60,0.2,0.3,  PROP_ID='Acme Sprinkler' /
&DEVC XYZ=0.70,0.2,0.3,  PROP_ID='Acme Sprinkler' /
&DEVC XYZ=0.80,0.2,0.3,  PROP_ID='Acme Sprinkler' /
&DEVC XYZ=0.90,0.2,0.3,  PROP_ID='Acme Sprinkler' /
&DEVC XYZ=1.00,0.2,0.3,  PROP_ID='Acme Sprinkler' /
&DEVC XYZ=1.10,0.2,0.3,  PROP_ID='Acme Sprinkler' /
&DEVC XYZ=1.20,0.2,0.3,  PROP_ID='Acme Sprinkler' /
&DEVC XYZ=1.30,0.2,0.3,  PROP_ID='Acme Sprinkler' /
&DEVC XYZ=1.40,0.2,0.3,  PROP_ID='Acme Sprinkler' /
&DEVC XYZ=1.50,0.2,0.3,  PROP_ID='Acme Sprinkler' /

&DEVC XYZ=0.10,0.3,0.3,  PROP_ID='Acme Sprinkler' /
&DEVC XYZ=0.20,0.3,0.3,  PROP_ID='Acme Sprinkler' /
&DEVC XYZ=0.30,0.3,0.3,  PROP_ID='Acme Sprinkler' /
&DEVC XYZ=0.40,0.3,0.3,  PROP_ID='Acme Sprinkler' /
&DEVC XYZ=0.50,0.3,0.3,  PROP_ID='Acme Sprinkler' /
&DEVC XYZ=0.60,0.3,0.3,  PROP_ID='Acme Sprinkler' /
&DEVC XYZ=0.70,0.3,0.3,  PROP_ID='Acme Sprinkler' /
&DEVC XYZ=0.80,0.3,0.3,  PROP_ID='Acme Sprinkler' /
&DEVC XYZ=0.90,0.3,0.3,  PROP_ID='Acme Sprinkler' /
&DEVC XYZ=1.00,0.3,0.3,  PROP_ID='Acme Sprinkler' /
&DEVC XYZ=1.10,0.3,0.3,  PROP_ID='Acme Sprinkler' /
&DEVC XYZ=1.20,0.3,0.3,  PROP_ID='Acme Sprinkler' /
&DEVC XYZ=1.30,0.3,0.3,  PROP_ID='Acme Sprinkler' /
&DEVC XYZ=1.40,0.3,0.3,  PROP_ID='Acme Sprinkler' /
&DEVC XYZ=1.50,0.3,0.3,  PROP_ID='Acme Sprinkler' /

&DEVC XYZ=0.10,0.4,0.3,  PROP_ID='Acme Sprinkler' /
&DEVC XYZ=0.20,0.4,0.3,  PROP_ID='Acme Sprinkler' /
&DEVC XYZ=0.30,0.4,0.3,  PROP_ID='Acme Sprinkler' /
&DEVC XYZ=0.40,0.4,0.3,  PROP_ID='Acme Sprinkler' /
&DEVC XYZ=0.50,0.4,0.3,  PROP_ID='Acme Sprinkler' /
&DEVC XYZ=0.60,0.4,0.3,  PROP_ID='Acme Sprinkler' /
&DEVC XYZ=0.70,0.4,0.3,  PROP_ID='Acme Sprinkler' /
&DEVC XYZ=0.80,0.4,0.3,  PROP_ID='Acme Sprinkler' /
&DEVC XYZ=0.90,0.4,0.3,  PROP_ID='Acme Sprinkler' /
&DEVC XYZ=1.00,0.4,0.3,  PROP_ID='Acme Sprinkler' /
&DEVC XYZ=1.10,0.4,0.3,  PROP_ID='Acme Sprinkler' /
&DEVC XYZ=1.20,0.4,0.3,  PROP_ID='Acme Sprinkler' /
&DEVC XYZ=1.30,0.4,0.3,  PROP_ID='Acme Sprinkler' /
&DEVC XYZ=1.40,0.4,0.3,  PROP_ID='Acme Sprinkler' /
&DEVC XYZ=1.50,0.4,0.3,  PROP_ID='Acme Sprinkler' /

&DEVC XYZ=0.10,0.5,0.3,  PROP_ID='Acme Sprinkler' /
&DEVC XYZ=0.20,0.5,0.3,  PROP_ID='Acme Sprinkler' /
&DEVC XYZ=0.30,0.5,0.3,  PROP_ID='Acme Sprinkler' /
&DEVC XYZ=0.40,0.5,0.3,  PROP_ID='Acme Sprinkler' /
&DEVC XYZ=0.50,0.5,0.3,  PROP_ID='Acme Sprinkler' /
&DEVC XYZ=0.60,0.5,0.3,  PROP_ID='Acme Sprinkler' /
&DEVC XYZ=0.70,0.5,0.3,  PROP_ID='Acme Sprinkler' /
&DEVC XYZ=0.80,0.5,0.3,  PROP_ID='Acme Sprinkler' /
&DEVC XYZ=0.90,0.5,0.3,  PROP_ID='Acme Sprinkler' /
&DEVC XYZ=1.00,0.5,0.3,  PROP_ID='Acme Sprinkler' /
&DEVC XYZ=1.10,0.5,0.3,  PROP_ID='Acme Sprinkler' /
&DEVC XYZ=1.20,0.5,0.3,  PROP_ID='Acme Sprinkler' /
&DEVC XYZ=1.30,0.5,0.3,  PROP_ID='Acme Sprinkler' /
&DEVC XYZ=1.40,0.5,0.3,  PROP_ID='Acme Sprinkler' /
&DEVC XYZ=1.50,0.5,0.3,  PROP_ID='Acme Sprinkler' /

&DEVC XYZ=0.10,0.6,0.3,  PROP_ID='Acme Sprinkler' /
&DEVC XYZ=0.20,0.6,0.3,  PROP_ID='Acme Sprinkler' /
&DEVC XYZ=0.30,0.6,0.3,  PROP_ID='Acme Sprinkler' /
&DEVC XYZ=0.40,0.6,0.3,  PROP_ID='Acme Sprinkler' /
&DEVC XYZ=0.50,0.6,0.3,  PROP_ID='Acme Sprinkler' /
&DEVC XYZ=0.60,0.6,0.3,  PROP_ID='Acme Sprinkler' /
&DEVC XYZ=0.70,0.6,0.3,  PROP_ID='Acme Sprinkler' /
&DEVC XYZ=0.80,0.6,0.3,  PROP_ID='Acme Sprinkler' /
&DEVC XYZ=0.90,0.6,0.3,  PROP_ID='Acme Sprinkler' /
&DEVC XYZ=1.00,0.6,0.3,  PROP_ID='Acme Sprinkler' /
&DEVC XYZ=1.10,0.6,0.3,  PROP_ID='Acme Sprinkler' /
&DEVC XYZ=1.20,0.6,0.3,  PROP_ID='Acme Sprinkler' /
&DEVC XYZ=1.30,0.6,0.3,  PROP_ID='Acme Sprinkler' /
&DEVC XYZ=1.40,0.6,0.3,  PROP_ID='Acme Sprinkler' /
&DEVC XYZ=1.50,0.6,0.3,  PROP_ID='Acme Sprinkler' /

&DEVC XYZ=0.10,0.7,0.3,  PROP_ID='Acme Sprinkler' /
&DEVC XYZ=0.20,0.7,0.3,  PROP_ID='Acme Sprinkler' /
&DEVC XYZ=0.30,0.7,0.3,  PROP_ID='Acme Sprinkler' /
&DEVC XYZ=0.40,0.7,0.3,  PROP_ID='Acme Sprinkler' /
&DEVC XYZ=0.50,0.7,0.3,  PROP_ID='Acme Sprinkler' /
&DEVC XYZ=0.60,0.7,0.3,  PROP_ID='Acme Sprinkler' /
&DEVC XYZ=0.70,0.7,0.3,  PROP_ID='Acme Sprinkler' /
&DEVC XYZ=0.80,0.7,0.3,  PROP_ID='Acme Sprinkler' /
&DEVC XYZ=0.90,0.7,0.3,  PROP_ID='Acme Sprinkler' /
&DEVC XYZ=1.00,0.7,0.3,  PROP_ID='Acme Sprinkler' /
&DEVC XYZ=1.10,0.7,0.3,  PROP_ID='Acme Sprinkler' /
&DEVC XYZ=1.20,0.7,0.3,  PROP_ID='Acme Sprinkler' /
&DEVC XYZ=1.30,0.7,0.3,  PROP_ID='Acme Sprinkler' /
&DEVC XYZ=1.40,0.7,0.3,  PROP_ID='Acme Sprinkler' /
&DEVC XYZ=1.50,0.7,0.3,  PROP_ID='Acme Sprinkler' /

&DEVC XYZ=0.10,0.8,0.3,  PROP_ID='Acme Sprinkler' /
&DEVC XYZ=0.20,0.8,0.3,  PROP_ID='Acme Sprinkler' /
&DEVC XYZ=0.30,0.8,0.3,  PROP_ID='Acme Sprinkler' /