&HEAD CHID='vector_cell_test',TITLE='cell centered vector plot test case SVN $Revision$' /

  same as plume5a except there is a blockage in the middle of the scene to block the flow
  The purpose of this case is to demonstrate the curved flow (via streak lines) that results.

&MESH IJK=16,16,32, XB=0.0,1.6,0.0,1.6,0.0,3.2 /

&MISC HRRPUV_MAX_SMV=1300.0 /

&DUMP NFRAMES=400 DT_PL3D=8.0, DT_SL3D=0.1 /

&TIME T_END=40. /  Total simulation time

&MATL ID                    = 'FABRIC'
      FYI                   = 'Properties completely fabricated'
      SPECIFIC_HEAT         = 1.0
      CONDUCTIVITY          = 0.1
      DENSITY               = 100.0
      N_REACTIONS           = 1
      NU_SPEC               = 1.
      SPEC_ID               = 'PROPANE'
      REFERENCE_TEMPERATURE = 350.
      HEAT_OF_REACTION      = 3000.
      HEAT_OF_COMBUSTION    = 15000. /

&MATL ID                    = 'FOAM'
      FYI                   = 'Properties completely fabricated'
      SPECIFIC_HEAT         = 1.0
      CONDUCTIVITY          = 0.05
      DENSITY               = 40.0
      N_REACTIONS           = 1
      NU_SPEC               = 1.
      SPEC_ID               = 'PROPANE'
      REFERENCE_TEMPERATURE = 350.
      HEAT_OF_REACTION      = 1500.
      HEAT_OF_COMBUSTION    = 30000. /

&SURF ID             = 'UPHOLSTERY_LOWER'
      FYI            = 'Properties completely fabricated'
      RGB            = 151,96,88
      BURN_AWAY      = .FALSE.
      MATL_ID(1:2,1) = 'FABRIC','FOAM'
      THICKNESS(1:2) = 0.002,0.1 
/

&SURF ID             = 'UPHOLSTERY_UPPER'
      FYI            = 'Properties completely fabricated'
      RGB            = 151,96,88
      BURN_AWAY      = .FALSE.
      MATL_ID(1:2,1) = 'FABRIC','FOAM'
      THICKNESS(1:2) = 0.002,0.1 
      TMP_INNER      = 600.0
/

&SURF ID='INFLOW',VEL=-5.0 / 
&VENT XB=0.0,1.6,0.0,1.6,0.0,0.0,SURF_ID='INFLOW' /  fire source on kitchen stove

&OBST XB=0.6,1.0,0.6,1.0,1.2,1.6 SURF_ID='UPHOLSTERY_UPPER' /

&VENT XB=0.0,1.6,0.0,0.0,0.0,3.2,SURF_ID='OPEN'/
&VENT XB=1.6,1.6,0.0,1.6,0.0,3.2,SURF_ID='OPEN'/
&VENT XB=0.0,1.6,1.6,1.6,0.0,3.2,SURF_ID='OPEN'/
&VENT XB=0.0,0.0,0.0,1.6,0.0,3.2,SURF_ID='OPEN'/
&VENT XB=0.0,1.6,0.0,1.6,3.2,3.2,SURF_ID='OPEN'/

&ISOF QUANTITY='TEMPERATURE',VALUE(1)=100.0 /  Show 3D contours of temperature at 100 C
&ISOF QUANTITY='TEMPERATURE',VALUE(1)=200.0 /  Show 3D contours of temperature at 200 C
&ISOF QUANTITY='TEMPERATURE',VALUE(1)=620.0 /  Show 3D contours of temperature at 620 C
&ISOF QUANTITY='TEMPERATURE',VALUE(1)=200.0,400.0 /  Show 3D contours of temperature at 200 C

&PART ID='tracers',MASSLESS=.TRUE.,
   QUANTITIES(1:4)='U-VELOCITY','V-VELOCITY','W-VELOCITY'
   SAMPLING_FACTOR=10 /  Description of massless tracer particles. Apply at a
                                                             solid surface with the PART_ID='tracers'

 X slices

&SLCF PBX=0.8,QUANTITY='TEMPERATURE',VECTOR=.TRUE. /  Add vector slices colored by temperature
&SLCF PBX=0.8,QUANTITY='DIVERGENCE',CELL_CENTERED=.TRUE.,VECTOR=.TRUE. / 

&SLCF PBY=0.8,QUANTITY='TEMPERATURE',VECTOR=.TRUE. /  Add vector slices colored by temperature
&SLCF PBY=0.8,QUANTITY='DIVERGENCE',CELL_CENTERED=.TRUE.,VECTOR=.TRUE. / 

&SLCF PBZ=1.4,QUANTITY='TEMPERATURE',VECTOR=.TRUE. /  Add vector slices colored by temperature
&SLCF PBZ=1.4,QUANTITY='DIVERGENCE',CELL_CENTERED=.TRUE.,VECTOR=.TRUE. / 


&TAIL /
