&HEAD CHID='vector_cell_test',TITLE='cell centered vector plot test case SVN $Revision$' /

  same as plume5a except there is a blockage in the middle of the scene to block the flow
  The purpose of this case is to demonstrate the curved flow (via streak lines) that results.

&MESH IJK=16,16,32, XB=0.0,1.6,0.0,1.6,0.0,3.2 /

&MISC HRRPUV_MAX_SMV=1300.0 /

&DUMP NFRAMES=400 DT_PL3D=8.0, DT_SL3D=0.1 /

&TIME T_END=40. /  Total simulation time


&SURF ID='INFLOW',VEL=-5.0 / 
&VENT XB=0.0,1.6,0.0,1.6,0.0,0.0,SURF_ID='INFLOW' /  

&OBST XB=0.6,1.0,0.6,1.0,1.2,1.6 COLOR='MAGENTA' /

&VENT XB=0.0,1.6,0.0,0.0,0.0,3.2,SURF_ID='OPEN'/
&VENT XB=1.6,1.6,0.0,1.6,0.0,3.2,SURF_ID='OPEN'/
&VENT XB=0.0,1.6,1.6,1.6,0.0,3.2,SURF_ID='OPEN'/
&VENT XB=0.0,0.0,0.0,1.6,0.0,3.2,SURF_ID='OPEN'/
&VENT XB=0.0,1.6,0.0,1.6,3.2,3.2,SURF_ID='OPEN'/


&SLCF XB=0.0,1.6,0.0,1.6,0.0,3.2,QUANTITY='DIVERGENCE',VECTOR=.TRUE. / 
&SLCF XB=0.0,1.6,0.0,1.6,0.0,3.2,QUANTITY='DIVERGENCE',CELL_CENTERED=.TRUE.,VECTOR=.TRUE. / 

&SLCF PBX=0.8,QUANTITY='TEMPERATURE',VECTOR=.TRUE. /  Add vector slices colored by temperature
&SLCF PBX=0.8,QUANTITY='DIVERGENCE',CELL_CENTERED=.TRUE.,VECTOR=.TRUE. / 

&SLCF PBY=0.8,QUANTITY='TEMPERATURE',VECTOR=.TRUE. /  Add vector slices colored by temperature
&SLCF PBY=0.8,QUANTITY='DIVERGENCE',CELL_CENTERED=.TRUE.,VECTOR=.TRUE. / 

&SLCF PBZ=1.4,QUANTITY='TEMPERATURE',VECTOR=.TRUE. /  Add vector slices colored by temperature
&SLCF PBZ=1.4,QUANTITY='DIVERGENCE',CELL_CENTERED=.TRUE.,VECTOR=.TRUE. / 


&TAIL /
