&HEAD CHID='vis_test2a', TITLE='variant of Sandia plume case SVN $Revision: 9485 $' /

&MESH IJK=48,48,64, XB=-1.5,1.5,-1.5,1.5,-.0625,3.9375/
MESH IJK=24,48,64, XB=-1.5,0.0,-1.5,1.5,-.0625,3.9375/
MESH IJK=24,48,64, XB= 0.0,1.5,-1.5,1.5,-.0625,3.9375/

&DUMP NFRAMES=100 DT_SL3D=0.033333 /

&TIME T_END=10. /
&MISC TMPA=5.
      P_INF=81100./

&REAC FUEL='METHANE'
      SOOT_YIELD=0.01
      HEAT_OF_COMBUSTION=50350.
      CRITICAL_FLAME_TEMPERATURE=1207/

&SURF ID='POOL',MASS_FLUX(1)=0.066,SPEC_ID(1)='METHANE',TMP_FRONT=1. /

&VENT XB=-0.5,0.5,-0.5,0.5,-.0625,-.0625,COLOR='BLUE',SURF_ID='POOL'/

&VENT XB=-1.5, 1.5,-1.5, 1.5,3.9375,3.9375,SURF_ID='OPEN'/
&VENT XB=-1.5,-1.5,-1.5, 1.5,-0.0625,3.9375,SURF_ID='OPEN'/
&VENT XB= 1.5, 1.5,-1.5, 1.5,-0.0625,3.9375,SURF_ID='OPEN'/
&VENT XB=-1.5, 1.5,-1.5,-1.5,-0.0625,3.9375,SURF_ID='OPEN'/
&VENT XB=-1.5, 1.5, 1.5, 1.5,-0.0625,3.9375,SURF_ID='OPEN'/

&SLCF PBY=-.0625, QUANTITY='VELOCITY', VECTOR=.TRUE. /
&SLCF PBY=-.0625, QUANTITY='DENSITY' /
&SLCF PBY=-.0625, QUANTITY='TEMPERATURE' /
&SLCF PBY=-.0625, QUANTITY='HRRPUV' /
&SLCF PBY=-.0625, QUANTITY='HRRPUA' /
&SLCF PBY=-.0625, QUANTITY='MASS FRACTION', SPEC_ID='METHANE' /
&SLCF XB=-1.5,1.5,-1.5,1.5,-0.0625,3.9375, QUANTITY='TEMPERATURE' / 3D slice
&SLCF XB=-1.5,1.5,-1.5,1.5,-0.0625,3.9375, QUANTITY='DENSITY',SPEC_ID='SOOT' / 3D slice

&TAIL /
