&HEAD CHID='EDC_MultiCFDStep_Methane_grimech30_Zeta0p5', TITLE='Multiple CFD Step Methane grimech30 EDC for T 900K, Phi 0.6, and Zeta 0.5' /

&MISC GVEC(3)=0.0, NOISE=F, STRATIFICATION=F, SIMULATION_MODE='DNS' /

&RADI RADIATION=F/
&SURF ID='DEF',DEFAULT=T,ADIABATIC=T/

&COMB INITIAL_UNMIXED_FRACTION=0.5,FIXED_MIX_TIME=0.01,ODE_SOLVER='CVODE',ODE_MIN_ATOL=1E-15,ODE_REL_ERROR=1E-9,ZZ_MIN_GLOBAL=1E-15/
&TIME T_END=20.0, DT=0.01, LOCK_TIME_STEP=T /
&DUMP FLUSH_FILE_BUFFERS=T, DT_DEVC=1e-20/

&CATF OTHER_FILES='../../Utilities/Input_Libraries/Chemical_Mechanisms/FDS/Methane_grimech30.fds' /

&MESH IJK=5,1,5, XB=0.0,1.0,0.0,0.2,0.0,1.0 /
&OBST XB=0.0,1.0,0.0,0.2,0.0,1.0/
&HOLE XB=0.4,0.6,-1.0,1.0,0.4,0.6/
&INIT XB=0.4,0.6,-1.0,1.0,0.4,0.6, MASS_FRACTION(1)=0.22511048, SPEC_ID(1)='O2',MASS_FRACTION(2)=0.03385944,SPEC_ID(2)='CH4',  TEMPERATURE=626.85 /
&DEVC XYZ=0.5,0.0,0.5, QUANTITY='MASS FRACTION', SPEC_ID='OH',  ID='OH' /
&DEVC XYZ=0.5,0.0,0.5, QUANTITY='MASS FRACTION', SPEC_ID='H',   ID='H' /
&DEVC XYZ=0.5,0.0,0.5, QUANTITY='MASS FRACTION', SPEC_ID='O2',  ID='O2' /
&DEVC XYZ=0.5,0.0,0.5, QUANTITY='MASS FRACTION', SPEC_ID='CH4', ID='CH4' /
&DEVC XYZ=0.5,0.0,0.5, QUANTITY='MASS FRACTION', SPEC_ID='C2H2',ID='C2H2' /
&DEVC XYZ=0.5,0.0,0.5, QUANTITY='TEMPERATURE', ID='TMP'/
&DEVC XYZ=0.5,0.0,0.5, QUANTITY='PRESSURE', ID='PRESSURE'/



&DEVC XYZ=0.5,0.0,0.5, QUANTITY='ELEMENT MASS FRACTION', ELEM_ID='C',  ID='C_MF' /
&DEVC XYZ=0.5,0.0,0.5, QUANTITY='ELEMENT MASS FRACTION', ELEM_ID='H',  ID='H_MF' /
&DEVC XYZ=0.5,0.0,0.5, QUANTITY='ELEMENT MASS FRACTION', ELEM_ID='O',  ID='O_MF' /
&DEVC XYZ=0.5,0.0,0.5, QUANTITY='ELEMENT MASS FRACTION', ELEM_ID='N',  ID='N_MF' /
&DEVC XYZ=0.5,0.0,0.5 QUANTITY='SPECIFIC INTERNAL ENERGY', ID='SPEC_ENRG'/

&DEVC XB=0.0,1.0,0.0,0.2,0.0,1.0 QUANTITY='ELEMENT MASS FRACTION', ELEM_ID='C',SPATIAL_STATISTIC='MASS INTEGRAL' ID='C_MASS'/
&DEVC XB=0.0,1.0,0.0,0.2,0.0,1.0 QUANTITY='ELEMENT MASS FRACTION', ELEM_ID='H',SPATIAL_STATISTIC='MASS INTEGRAL' ID='H_MASS'/
&DEVC XB=0.0,1.0,0.0,0.2,0.0,1.0 QUANTITY='ELEMENT MASS FRACTION', ELEM_ID='O',SPATIAL_STATISTIC='MASS INTEGRAL' ID='O_MASS'/
&DEVC XB=0.0,1.0,0.0,0.2,0.0,1.0 QUANTITY='ELEMENT MASS FRACTION', ELEM_ID='N',SPATIAL_STATISTIC='MASS INTEGRAL' ID='N_MASS'/
&DEVC XB=0.0,1.0,0.0,0.2,0.0,1.0 QUANTITY='DENSITY', SPATIAL_STATISTIC='VOLUME INTEGRAL' ID='TOT_MASS'/
&TAIL /
