&HEAD CHID='ign_delay_Methane_grimech30_T1100K_Phi0p6', TITLE='ign_delay Methane_grimech30 T=1100K Phi=0.6' /

&MISC GVEC(3)=0.0, NOISE=F, STRATIFICATION=F, SIMULATION_MODE='DNS' /

&RADI RADIATION=F/
&SURF ID='DEF',DEFAULT=T,ADIABATIC=T/

&COMB ODE_SOLVER='CVODE',ODE_MIN_ATOL=1E-15,ODE_REL_ERROR=1E-9,ZZ_MIN_GLOBAL=1E-15 /
&TIME T_END=10, RAMP_TIME='t' /
&DUMP FLUSH_FILE_BUFFERS=T, DT_DEVC=1e-20/

&CATF OTHER_FILES='../../Utilities/Input_Libraries/Chemical_Mechanisms/FDS/Methane_grimech30.fds' /

&MESH IJK=5,1,5, XB=0.0,1.0,0.0,0.2,0.0,1.0 /
&OBST XB=0.0,1.0,0.0,0.2,0.0,1.0/
&HOLE XB=0.4,0.6,-1.0,1.0,0.4,0.6/
&INIT XB=0.4,0.6,-1.0,1.0,0.4,0.6, MASS_FRACTION(1)=0.22511048, SPEC_ID(1)='O2',MASS_FRACTION(2)=0.03385944,SPEC_ID(2)='CH4',  TEMPERATURE=826.85 /
&DEVC XYZ=0.5,0.0,0.5, QUANTITY='MASS FRACTION', SPEC_ID='OH',  ID='OH' /
&DEVC XYZ=0.5,0.0,0.5, QUANTITY='TEMPERATURE', ID='TMP'/

&RAMP ID='t', T=    0.000000000001 / 
&RAMP ID='t', T=    0.000000012710 / 
&RAMP ID='t', T=    0.000000139802 / 
&RAMP ID='t', T=    0.000000392320 / 
&RAMP ID='t', T=    0.000000847168 / 
&RAMP ID='t', T=    0.000001302017 / 
&RAMP ID='t', T=    0.000001756865 / 
&RAMP ID='t', T=    0.000002465508 / 
&RAMP ID='t', T=    0.000003174151 / 
&RAMP ID='t', T=    0.000004275012 / 
&RAMP ID='t', T=    0.000005375873 / 
&RAMP ID='t', T=    0.000006476735 / 
&RAMP ID='t', T=    0.000007577596 / 
&RAMP ID='t', T=    0.000009408551 / 
&RAMP ID='t', T=    0.000011239507 / 
&RAMP ID='t', T=    0.000013070463 / 
&RAMP ID='t', T=    0.000014901418 / 
&RAMP ID='t', T=    0.000017668611 / 
&RAMP ID='t', T=    0.000020435804 / 
&RAMP ID='t', T=    0.000025796308 / 
&RAMP ID='t', T=    0.000031156811 / 
&RAMP ID='t', T=    0.000036517315 / 
&RAMP ID='t', T=    0.000041877818 / 
&RAMP ID='t', T=    0.000047238322 / 
&RAMP ID='t', T=    0.000057843051 / 
&RAMP ID='t', T=    0.000068447780 / 
&RAMP ID='t', T=    0.000079052509 / 
&RAMP ID='t', T=    0.000089657238 / 
&RAMP ID='t', T=    0.000105891837 / 
&RAMP ID='t', T=    0.000132236023 / 
&RAMP ID='t', T=    0.000166474042 / 
&RAMP ID='t', T=    0.000200712060 / 
&RAMP ID='t', T=    0.000234950079 / 
&RAMP ID='t', T=    0.000269188098 / 
&RAMP ID='t', T=    0.000303426117 / 
&RAMP ID='t', T=    0.000337664135 / 
&RAMP ID='t', T=    0.000371902154 / 
&RAMP ID='t', T=    0.000435004719 / 
&RAMP ID='t', T=    0.000537015976 / 
&RAMP ID='t', T=    0.000639027232 / 
&RAMP ID='t', T=    0.000705804410 / 
&RAMP ID='t', T=    0.000772581587 / 
&RAMP ID='t', T=    0.000839358764 / 
&RAMP ID='t', T=    0.000906135941 / 
&RAMP ID='t', T=    0.000972913119 / 
&RAMP ID='t', T=    0.001039690296 / 
&RAMP ID='t', T=    0.001106467473 / 
&RAMP ID='t', T=    0.001173244650 / 
&RAMP ID='t', T=    0.001240021828 / 
&RAMP ID='t', T=    0.001347769203 / 
&RAMP ID='t', T=    0.001455516579 / 
&RAMP ID='t', T=    0.001563263955 / 
&RAMP ID='t', T=    0.001671011330 / 
&RAMP ID='t', T=    0.001778758706 / 
&RAMP ID='t', T=    0.001886506082 / 
&RAMP ID='t', T=    0.001994253458 / 
&RAMP ID='t', T=    0.002102000833 / 
&RAMP ID='t', T=    0.002209748209 / 
&RAMP ID='t', T=    0.002317495585 / 
&RAMP ID='t', T=    0.002425242961 / 
&RAMP ID='t', T=    0.002532990336 / 
&RAMP ID='t', T=    0.002640737712 / 
&RAMP ID='t', T=    0.002748485088 / 
&RAMP ID='t', T=    0.002856232464 / 
&RAMP ID='t', T=    0.002963979839 / 
&RAMP ID='t', T=    0.003071727215 / 
&RAMP ID='t', T=    0.003179474591 / 
&RAMP ID='t', T=    0.003287221967 / 
&RAMP ID='t', T=    0.003394969342 / 
&RAMP ID='t', T=    0.003502716718 / 
&RAMP ID='t', T=    0.003610464094 / 
&RAMP ID='t', T=    0.003718211470 / 
&RAMP ID='t', T=    0.003825958845 / 
&RAMP ID='t', T=    0.003933706221 / 
&RAMP ID='t', T=    0.004041453597 / 
&RAMP ID='t', T=    0.004149200973 / 
&RAMP ID='t', T=    0.004256948348 / 
&RAMP ID='t', T=    0.004364695724 / 
&RAMP ID='t', T=    0.004472443100 / 
&RAMP ID='t', T=    0.004580190476 / 
&RAMP ID='t', T=    0.004687937851 / 
&RAMP ID='t', T=    0.004795685227 / 
&RAMP ID='t', T=    0.004903432603 / 
&RAMP ID='t', T=    0.005011179979 / 
&RAMP ID='t', T=    0.005118927354 / 
&RAMP ID='t', T=    0.005226674730 / 
&RAMP ID='t', T=    0.005334422106 / 
&RAMP ID='t', T=    0.005442169482 / 
&RAMP ID='t', T=    0.005549916857 / 
&RAMP ID='t', T=    0.005657664233 / 
&RAMP ID='t', T=    0.005765411609 / 
&RAMP ID='t', T=    0.005873158985 / 
&RAMP ID='t', T=    0.005980906360 / 
&RAMP ID='t', T=    0.006088653736 / 
&RAMP ID='t', T=    0.006196401112 / 
&RAMP ID='t', T=    0.006304148487 / 
&RAMP ID='t', T=    0.006411895863 / 
&RAMP ID='t', T=    0.006519643239 / 
&RAMP ID='t', T=    0.006627390615 / 
&RAMP ID='t', T=    0.006735137990 / 
&RAMP ID='t', T=    0.006842885366 / 
&RAMP ID='t', T=    0.006950632742 / 
&RAMP ID='t', T=    0.007058380118 / 
&RAMP ID='t', T=    0.007166127493 / 
&RAMP ID='t', T=    0.007273874869 / 
&RAMP ID='t', T=    0.007381622245 / 
&RAMP ID='t', T=    0.007489369621 / 
&RAMP ID='t', T=    0.007597116996 / 
&RAMP ID='t', T=    0.007704864372 / 
&RAMP ID='t', T=    0.007812611748 / 
&RAMP ID='t', T=    0.007920359124 / 
&RAMP ID='t', T=    0.008028106499 / 
&RAMP ID='t', T=    0.008135853875 / 
&RAMP ID='t', T=    0.008243601251 / 
&RAMP ID='t', T=    0.008351348627 / 
&RAMP ID='t', T=    0.008459096002 / 
&RAMP ID='t', T=    0.008566843378 / 
&RAMP ID='t', T=    0.008674590754 / 
&RAMP ID='t', T=    0.008782338130 / 
&RAMP ID='t', T=    0.008890085505 / 
&RAMP ID='t', T=    0.008997832881 / 
&RAMP ID='t', T=    0.009105580257 / 
&RAMP ID='t', T=    0.009213327633 / 
&RAMP ID='t', T=    0.009321075008 / 
&RAMP ID='t', T=    0.009428822384 / 
&RAMP ID='t', T=    0.009536569760 / 
&RAMP ID='t', T=    0.009644317136 / 
&RAMP ID='t', T=    0.009752064511 / 
&RAMP ID='t', T=    0.009859811887 / 
&RAMP ID='t', T=    0.009967559263 / 
&RAMP ID='t', T=    0.010075306639 / 
&RAMP ID='t', T=    0.010183054014 / 
&RAMP ID='t', T=    0.010290801390 / 
&RAMP ID='t', T=    0.010398548766 / 
&RAMP ID='t', T=    0.010506296141 / 
&RAMP ID='t', T=    0.010667973924 / 
&RAMP ID='t', T=    0.010829651706 / 
&RAMP ID='t', T=    0.010991329488 / 
&RAMP ID='t', T=    0.011153007270 / 
&RAMP ID='t', T=    0.011314685052 / 
&RAMP ID='t', T=    0.011476362834 / 
&RAMP ID='t', T=    0.011638040616 / 
&RAMP ID='t', T=    0.011799718398 / 
&RAMP ID='t', T=    0.011961396180 / 
&RAMP ID='t', T=    0.012123073963 / 
&RAMP ID='t', T=    0.012284751745 / 
&RAMP ID='t', T=    0.012446429527 / 
&RAMP ID='t', T=    0.012608107309 / 
&RAMP ID='t', T=    0.012769785091 / 
&RAMP ID='t', T=    0.012931462873 / 
&RAMP ID='t', T=    0.013093140655 / 
&RAMP ID='t', T=    0.013254818437 / 
&RAMP ID='t', T=    0.013416496219 / 
&RAMP ID='t', T=    0.013578174001 / 
&RAMP ID='t', T=    0.013739851784 / 
&RAMP ID='t', T=    0.013983719473 / 
&RAMP ID='t', T=    0.014227587163 / 
&RAMP ID='t', T=    0.014471454853 / 
&RAMP ID='t', T=    0.014715322543 / 
&RAMP ID='t', T=    0.014959190233 / 
&RAMP ID='t', T=    0.015203057923 / 
&RAMP ID='t', T=    0.015446925613 / 
&RAMP ID='t', T=    0.015690793303 / 
&RAMP ID='t', T=    0.015934660993 / 
&RAMP ID='t', T=    0.016178528683 / 
&RAMP ID='t', T=    0.016422396373 / 
&RAMP ID='t', T=    0.016666264063 / 
&RAMP ID='t', T=    0.016910131752 / 
&RAMP ID='t', T=    0.017153999442 / 
&RAMP ID='t', T=    0.017397867132 / 
&RAMP ID='t', T=    0.017641734822 / 
&RAMP ID='t', T=    0.017885602512 / 
&RAMP ID='t', T=    0.018129470202 / 
&RAMP ID='t', T=    0.018373337892 / 
&RAMP ID='t', T=    0.018617205582 / 
&RAMP ID='t', T=    0.018861073272 / 
&RAMP ID='t', T=    0.019104940962 / 
&RAMP ID='t', T=    0.019348808652 / 
&RAMP ID='t', T=    0.019592676341 / 
&RAMP ID='t', T=    0.019836544031 / 
&RAMP ID='t', T=    0.020080411721 / 
&RAMP ID='t', T=    0.020324279411 / 
&RAMP ID='t', T=    0.020568147101 / 
&RAMP ID='t', T=    0.020812014791 / 
&RAMP ID='t', T=    0.021055882481 / 
&RAMP ID='t', T=    0.021428573039 / 
&RAMP ID='t', T=    0.021801263597 / 
&RAMP ID='t', T=    0.022173954156 / 
&RAMP ID='t', T=    0.022546644714 / 
&RAMP ID='t', T=    0.022919335272 / 
&RAMP ID='t', T=    0.023292025830 / 
&RAMP ID='t', T=    0.023664716389 / 
&RAMP ID='t', T=    0.024037406947 / 
&RAMP ID='t', T=    0.024410097505 / 
&RAMP ID='t', T=    0.024782788063 / 
&RAMP ID='t', T=    0.025155478622 / 
&RAMP ID='t', T=    0.025528169180 / 
&RAMP ID='t', T=    0.025900859738 / 
&RAMP ID='t', T=    0.026463495189 / 
&RAMP ID='t', T=    0.027026130640 / 
&RAMP ID='t', T=    0.027588766091 / 
&RAMP ID='t', T=    0.028151401542 / 
&RAMP ID='t', T=    0.028714036993 / 
&RAMP ID='t', T=    0.029276672444 / 
&RAMP ID='t', T=    0.030191629609 / 
&RAMP ID='t', T=    0.031106586774 / 
&RAMP ID='t', T=    0.032021543939 / 
&RAMP ID='t', T=    0.032936501104 / 
&RAMP ID='t', T=    0.033851458269 / 
&RAMP ID='t', T=    0.034766415435 / 
&RAMP ID='t', T=    0.035681372600 / 
&RAMP ID='t', T=    0.036596329765 / 
&RAMP ID='t', T=    0.037511286930 / 
&RAMP ID='t', T=    0.038426244095 / 
&RAMP ID='t', T=    0.039341201260 / 
&RAMP ID='t', T=    0.040256158425 / 
&RAMP ID='t', T=    0.041171115590 / 
&RAMP ID='t', T=    0.042086072755 / 
&RAMP ID='t', T=    0.043001029920 / 
&RAMP ID='t', T=    0.043915987085 / 
&RAMP ID='t', T=    0.044830944250 / 
&RAMP ID='t', T=    0.045745901415 / 
&RAMP ID='t', T=    0.046660858580 / 
&RAMP ID='t', T=    0.047575815745 / 
&RAMP ID='t', T=    0.048490772910 / 
&RAMP ID='t', T=    0.049405730075 / 
&RAMP ID='t', T=    0.050320687240 / 
&RAMP ID='t', T=    0.051235644405 / 
&RAMP ID='t', T=    0.052150601570 / 
&RAMP ID='t', T=    0.053065558735 / 
&RAMP ID='t', T=    0.053980515901 / 
&RAMP ID='t', T=    0.054895473066 / 
&RAMP ID='t', T=    0.055810430231 / 
&RAMP ID='t', T=    0.056725387396 / 
&RAMP ID='t', T=    0.057640344561 / 
&RAMP ID='t', T=    0.058555301726 / 
&RAMP ID='t', T=    0.059470258891 / 
&RAMP ID='t', T=    0.060385216056 / 
&RAMP ID='t', T=    0.061300173221 / 
&RAMP ID='t', T=    0.062215130386 / 
&RAMP ID='t', T=    0.063130087551 / 
&RAMP ID='t', T=    0.064045044716 / 
&RAMP ID='t', T=    0.064960001881 / 
&RAMP ID='t', T=    0.065874959046 / 
&RAMP ID='t', T=    0.066532159341 / 
&RAMP ID='t', T=    0.067189359637 / 
&RAMP ID='t', T=    0.067846559932 / 
&RAMP ID='t', T=    0.068503760227 / 
&RAMP ID='t', T=    0.069160960522 / 
&RAMP ID='t', T=    0.069818160817 / 
&RAMP ID='t', T=    0.070475361112 / 
&RAMP ID='t', T=    0.071132561408 / 
&RAMP ID='t', T=    0.071789761703 / 
&RAMP ID='t', T=    0.072446961998 / 
&RAMP ID='t', T=    0.073104162293 / 
&RAMP ID='t', T=    0.073761362588 / 
&RAMP ID='t', T=    0.074418562884 / 
&RAMP ID='t', T=    0.075075763179 / 
&RAMP ID='t', T=    0.075732963474 / 
&RAMP ID='t', T=    0.076390163769 / 
&RAMP ID='t', T=    0.077047364064 / 
&RAMP ID='t', T=    0.077704564360 / 
&RAMP ID='t', T=    0.078361764655 / 
&RAMP ID='t', T=    0.079018964950 / 
&RAMP ID='t', T=    0.079676165245 / 
&RAMP ID='t', T=    0.080333365540 / 
&RAMP ID='t', T=    0.080990565835 / 
&RAMP ID='t', T=    0.081647766131 / 
&RAMP ID='t', T=    0.082304966426 / 
&RAMP ID='t', T=    0.082962166721 / 
&RAMP ID='t', T=    0.083619367016 / 
&RAMP ID='t', T=    0.084276567311 / 
&RAMP ID='t', T=    0.084933767607 / 
&RAMP ID='t', T=    0.085590967902 / 
&RAMP ID='t', T=    0.086248168197 / 
&RAMP ID='t', T=    0.086905368492 / 
&RAMP ID='t', T=    0.087562568787 / 
&RAMP ID='t', T=    0.088219769082 / 
&RAMP ID='t', T=    0.088876969378 / 
&RAMP ID='t', T=    0.089534169673 / 
&RAMP ID='t', T=    0.090191369968 / 
&RAMP ID='t', T=    0.090848570263 / 
&RAMP ID='t', T=    0.091505770558 / 
&RAMP ID='t', T=    0.092162970854 / 
&RAMP ID='t', T=    0.092820171149 / 
&RAMP ID='t', T=    0.093477371444 / 
&RAMP ID='t', T=    0.094134571739 / 
&RAMP ID='t', T=    0.094791772034 / 
&RAMP ID='t', T=    0.095448972330 / 
&RAMP ID='t', T=    0.096106172625 / 
&RAMP ID='t', T=    0.096763372920 / 
&RAMP ID='t', T=    0.097420573215 / 
&RAMP ID='t', T=    0.098077773510 / 
&RAMP ID='t', T=    0.098734973805 / 
&RAMP ID='t', T=    0.099392174101 / 
&RAMP ID='t', T=    0.100049374396 / 
&RAMP ID='t', T=    0.100706574691 / 
&RAMP ID='t', T=    0.101363774986 / 
&RAMP ID='t', T=    0.102020975281 / 
&RAMP ID='t', T=    0.102484641620 / 
&RAMP ID='t', T=    0.102948307959 / 
&RAMP ID='t', T=    0.103411974298 / 
&RAMP ID='t', T=    0.103875640637 / 
&RAMP ID='t', T=    0.104339306976 / 
&RAMP ID='t', T=    0.104802973315 / 
&RAMP ID='t', T=    0.105266639654 / 
&RAMP ID='t', T=    0.105730305993 / 
&RAMP ID='t', T=    0.106193972332 / 
&RAMP ID='t', T=    0.106657638671 / 
&RAMP ID='t', T=    0.107121305010 / 
&RAMP ID='t', T=    0.107584971349 / 
&RAMP ID='t', T=    0.108048637688 / 
&RAMP ID='t', T=    0.108512304027 / 
&RAMP ID='t', T=    0.108975970366 / 
&RAMP ID='t', T=    0.109439636705 / 
&RAMP ID='t', T=    0.109903303044 / 
&RAMP ID='t', T=    0.110366969383 / 
&RAMP ID='t', T=    0.110830635722 / 
&RAMP ID='t', T=    0.111294302061 / 
&RAMP ID='t', T=    0.111757968400 / 
&RAMP ID='t', T=    0.112221634739 / 
&RAMP ID='t', T=    0.112685301078 / 
&RAMP ID='t', T=    0.113148967417 / 
&RAMP ID='t', T=    0.113612633755 / 
&RAMP ID='t', T=    0.114076300094 / 
&RAMP ID='t', T=    0.114539966433 / 
&RAMP ID='t', T=    0.115003632772 / 
&RAMP ID='t', T=    0.115467299111 / 
&RAMP ID='t', T=    0.115930965450 / 
&RAMP ID='t', T=    0.116394631789 / 
&RAMP ID='t', T=    0.116858298128 / 
&RAMP ID='t', T=    0.117321964467 / 
&RAMP ID='t', T=    0.117785630806 / 
&RAMP ID='t', T=    0.118249297145 / 
&RAMP ID='t', T=    0.118712963484 / 
&RAMP ID='t', T=    0.119176629823 / 
&RAMP ID='t', T=    0.119640296162 / 
&RAMP ID='t', T=    0.120103962501 / 
&RAMP ID='t', T=    0.120567628840 / 
&RAMP ID='t', T=    0.121031295179 / 
&RAMP ID='t', T=    0.121494961518 / 
&RAMP ID='t', T=    0.121958627857 / 
&RAMP ID='t', T=    0.122422294196 / 
&RAMP ID='t', T=    0.122885960535 / 
&RAMP ID='t', T=    0.123349626874 / 
&RAMP ID='t', T=    0.123813293213 / 
&RAMP ID='t', T=    0.124276959552 / 
&RAMP ID='t', T=    0.124740625891 / 
&RAMP ID='t', T=    0.125204292230 / 
&RAMP ID='t', T=    0.125667958569 / 
&RAMP ID='t', T=    0.126131624908 / 
&RAMP ID='t', T=    0.126460115337 / 
&RAMP ID='t', T=    0.126788605766 / 
&RAMP ID='t', T=    0.127117096196 / 
&RAMP ID='t', T=    0.127445586625 / 
&RAMP ID='t', T=    0.127774077055 / 
&RAMP ID='t', T=    0.128102567484 / 
&RAMP ID='t', T=    0.128431057913 / 
&RAMP ID='t', T=    0.128759548343 / 
&RAMP ID='t', T=    0.129088038772 / 
&RAMP ID='t', T=    0.129416529202 / 
&RAMP ID='t', T=    0.129745019631 / 
&RAMP ID='t', T=    0.130073510060 / 
&RAMP ID='t', T=    0.130402000490 / 
&RAMP ID='t', T=    0.130730490919 / 
&RAMP ID='t', T=    0.131058981349 / 
&RAMP ID='t', T=    0.131387471778 / 
&RAMP ID='t', T=    0.131715962208 / 
&RAMP ID='t', T=    0.132044452637 / 
&RAMP ID='t', T=    0.132372943066 / 
&RAMP ID='t', T=    0.132701433496 / 
&RAMP ID='t', T=    0.133029923925 / 
&RAMP ID='t', T=    0.133358414355 / 
&RAMP ID='t', T=    0.133686904784 / 
&RAMP ID='t', T=    0.134015395213 / 
&RAMP ID='t', T=    0.134343885643 / 
&RAMP ID='t', T=    0.134672376072 / 
&RAMP ID='t', T=    0.135000866502 / 
&RAMP ID='t', T=    0.135329356931 / 
&RAMP ID='t', T=    0.135657847360 / 
&RAMP ID='t', T=    0.135986337790 / 
&RAMP ID='t', T=    0.136314828219 / 
&RAMP ID='t', T=    0.136643318649 / 
&RAMP ID='t', T=    0.136882503936 / 
&RAMP ID='t', T=    0.137121689224 / 
&RAMP ID='t', T=    0.137360874512 / 
&RAMP ID='t', T=    0.137600059800 / 
&RAMP ID='t', T=    0.137839245088 / 
&RAMP ID='t', T=    0.138078430375 / 
&RAMP ID='t', T=    0.138317615663 / 
&RAMP ID='t', T=    0.138556800951 / 
&RAMP ID='t', T=    0.138795986239 / 
&RAMP ID='t', T=    0.139035171526 / 
&RAMP ID='t', T=    0.139204215413 / 
&RAMP ID='t', T=    0.139373259299 / 
&RAMP ID='t', T=    0.139542303185 / 
&RAMP ID='t', T=    0.139711347071 / 
&RAMP ID='t', T=    0.139880390957 / 
&RAMP ID='t', T=    0.140049434844 / 
&RAMP ID='t', T=    0.140218478730 / 
&RAMP ID='t', T=    0.140387522616 / 
&RAMP ID='t', T=    0.140556566502 / 
&RAMP ID='t', T=    0.140725610388 / 
&RAMP ID='t', T=    0.140894654275 / 
&RAMP ID='t', T=    0.141017027231 / 
&RAMP ID='t', T=    0.141107771418 / 
&RAMP ID='t', T=    0.141198515604 / 
&RAMP ID='t', T=    0.141289259790 / 
&RAMP ID='t', T=    0.141380003977 / 
&RAMP ID='t', T=    0.141470748163 / 
&RAMP ID='t', T=    0.141561492350 / 
&RAMP ID='t', T=    0.141652236536 / 
&RAMP ID='t', T=    0.141742980723 / 
&RAMP ID='t', T=    0.141833724909 / 
&RAMP ID='t', T=    0.141924469095 / 
&RAMP ID='t', T=    0.142015213282 / 
&RAMP ID='t', T=    0.142161438378 / 
&RAMP ID='t', T=    0.142307663475 / 
&RAMP ID='t', T=    0.142453888571 / 
&RAMP ID='t', T=    0.142600113668 / 
&RAMP ID='t', T=    0.142746338765 / 
&RAMP ID='t', T=    0.142892563861 / 
&RAMP ID='t', T=    0.143038788958 / 
&RAMP ID='t', T=    0.143185014054 / 
&RAMP ID='t', T=    0.143331239151 / 
&RAMP ID='t', T=    0.143477464248 / 
&RAMP ID='t', T=    0.143623689344 / 
&RAMP ID='t', T=    0.143769914441 / 
&RAMP ID='t', T=    0.143916139537 / 
&RAMP ID='t', T=    0.144062364634 / 
&RAMP ID='t', T=    0.144208589730 / 
&RAMP ID='t', T=    0.144354814827 / 
&RAMP ID='t', T=    0.144501039924 / 
&RAMP ID='t', T=    0.144647265020 / 
&RAMP ID='t', T=    0.144793490117 / 
&RAMP ID='t', T=    0.144901129735 / 
&RAMP ID='t', T=    0.145008769353 / 
&RAMP ID='t', T=    0.145116408971 / 
&RAMP ID='t', T=    0.145224048589 / 
&RAMP ID='t', T=    0.145302957451 / 
&RAMP ID='t', T=    0.145360914655 / 
&RAMP ID='t', T=    0.145418871858 / 
&RAMP ID='t', T=    0.145476829062 / 
&RAMP ID='t', T=    0.145534786265 / 
&RAMP ID='t', T=    0.145592743468 / 
&RAMP ID='t', T=    0.145634979293 / 
&RAMP ID='t', T=    0.145665717948 / 
&RAMP ID='t', T=    0.145696456604 / 
&RAMP ID='t', T=    0.145727195260 / 
&RAMP ID='t', T=    0.145757933915 / 
&RAMP ID='t', T=    0.145788672571 / 
&RAMP ID='t', T=    0.145819411227 / 
&RAMP ID='t', T=    0.145850149882 / 
&RAMP ID='t', T=    0.145872597822 / 
&RAMP ID='t', T=    0.145895045761 / 
&RAMP ID='t', T=    0.145917493701 / 
&RAMP ID='t', T=    0.145939941640 / 
&RAMP ID='t', T=    0.145962389579 / 
&RAMP ID='t', T=    0.145978690315 / 
&RAMP ID='t', T=    0.145990568842 / 
&RAMP ID='t', T=    0.146002447369 / 
&RAMP ID='t', T=    0.146014325896 / 
&RAMP ID='t', T=    0.146026204423 / 
&RAMP ID='t', T=    0.146038082950 / 
&RAMP ID='t', T=    0.146049961477 / 
&RAMP ID='t', T=    0.146061840004 / 
&RAMP ID='t', T=    0.146073718531 / 
&RAMP ID='t', T=    0.146085597058 / 
&RAMP ID='t', T=    0.146097475585 / 
&RAMP ID='t', T=    0.146109354112 / 
&RAMP ID='t', T=    0.146129682107 / 
&RAMP ID='t', T=    0.146150010102 / 
&RAMP ID='t', T=    0.146170338097 / 
&RAMP ID='t', T=    0.146190666092 / 
&RAMP ID='t', T=    0.146232423965 / 
&RAMP ID='t', T=    0.146299841707 / 
&RAMP ID='t', T=    0.146367259450 / 
&RAMP ID='t', T=    0.146434677193 / 
&RAMP ID='t', T=    0.146502094935 / 
&RAMP ID='t', T=    0.146569512678 / 
&RAMP ID='t', T=    0.146636930421 / 
&RAMP ID='t', T=    0.146704348163 / 
&RAMP ID='t', T=    0.146771765906 / 
&RAMP ID='t', T=    0.146839183649 / 
&RAMP ID='t', T=    0.146906601391 / 
&RAMP ID='t', T=    0.146974019134 / 
&RAMP ID='t', T=    0.147041436877 / 
&RAMP ID='t', T=    0.147108854619 / 
&RAMP ID='t', T=    0.147176272362 / 
&RAMP ID='t', T=    0.147243690104 / 
&RAMP ID='t', T=    0.147311107847 / 
&RAMP ID='t', T=    0.147378525590 / 
&RAMP ID='t', T=    0.147445943332 / 
&RAMP ID='t', T=    0.147513361075 / 
&RAMP ID='t', T=    0.147559975792 / 
&RAMP ID='t', T=    0.147606590509 / 
&RAMP ID='t', T=    0.147653205226 / 
&RAMP ID='t', T=    0.147699819943 / 
&RAMP ID='t', T=    0.147746434660 / 
&RAMP ID='t', T=    0.147793049377 / 
&RAMP ID='t', T=    0.147839664094 / 
&RAMP ID='t', T=    0.147886278811 / 
&RAMP ID='t', T=    0.147932893528 / 
&RAMP ID='t', T=    0.147979508245 / 
&RAMP ID='t', T=    0.148026122962 / 
&RAMP ID='t', T=    0.148072737679 / 
&RAMP ID='t', T=    0.148119352396 / 
&RAMP ID='t', T=    0.148165967113 / 
&RAMP ID='t', T=    0.148212581830 / 
&RAMP ID='t', T=    0.148259196547 / 
&RAMP ID='t', T=    0.148305811264 / 
&RAMP ID='t', T=    0.148352425981 / 
&RAMP ID='t', T=    0.148399040698 / 
&RAMP ID='t', T=    0.148445655415 / 
&RAMP ID='t', T=    0.148492270132 / 
&RAMP ID='t', T=    0.148538884849 / 
&RAMP ID='t', T=    0.148585499566 / 
&RAMP ID='t', T=    0.148632114283 / 
&RAMP ID='t', T=    0.148678729000 / 
&RAMP ID='t', T=    0.148725343717 / 
&RAMP ID='t', T=    0.148771958434 / 
&RAMP ID='t', T=    0.148818573151 / 
&RAMP ID='t', T=    0.148865187868 / 
&RAMP ID='t', T=    0.148911802585 / 
&RAMP ID='t', T=    0.148958417302 / 
&RAMP ID='t', T=    0.149005032019 / 
&RAMP ID='t', T=    0.149051646736 / 
&RAMP ID='t', T=    0.149098261453 / 
&RAMP ID='t', T=    0.149144876170 / 
&RAMP ID='t', T=    0.149177102688 / 
&RAMP ID='t', T=    0.149209329206 / 
&RAMP ID='t', T=    0.149241555724 / 
&RAMP ID='t', T=    0.149273782242 / 
&RAMP ID='t', T=    0.149306008760 / 
&RAMP ID='t', T=    0.149338235278 / 
&RAMP ID='t', T=    0.149370461796 / 
&RAMP ID='t', T=    0.149402688314 / 
&RAMP ID='t', T=    0.149434914832 / 
&RAMP ID='t', T=    0.149467141350 / 
&RAMP ID='t', T=    0.149499367868 / 
&RAMP ID='t', T=    0.149531594386 / 
&RAMP ID='t', T=    0.149563820904 / 
&RAMP ID='t', T=    0.149596047422 / 
&RAMP ID='t', T=    0.149628273940 / 
&RAMP ID='t', T=    0.149660500458 / 
&RAMP ID='t', T=    0.149692726976 / 
&RAMP ID='t', T=    0.149724953494 / 
&RAMP ID='t', T=    0.149757180012 / 
&RAMP ID='t', T=    0.149789406530 / 
&RAMP ID='t', T=    0.149821633048 / 
&RAMP ID='t', T=    0.149853859566 / 
&RAMP ID='t', T=    0.149886086084 / 
&RAMP ID='t', T=    0.149918312602 / 
&RAMP ID='t', T=    0.149950539120 / 
&RAMP ID='t', T=    0.149982765638 / 
&RAMP ID='t', T=    0.150014992156 / 
&RAMP ID='t', T=    0.150047218674 / 
&RAMP ID='t', T=    0.150079445192 / 
&RAMP ID='t', T=    0.150111671710 / 
&RAMP ID='t', T=    0.150133723639 / 
&RAMP ID='t', T=    0.150155775569 / 
&RAMP ID='t', T=    0.150177827498 / 
&RAMP ID='t', T=    0.150199879427 / 
&RAMP ID='t', T=    0.150221931356 / 
&RAMP ID='t', T=    0.150243983285 / 
&RAMP ID='t', T=    0.150259326473 / 
&RAMP ID='t', T=    0.150274669662 / 
&RAMP ID='t', T=    0.150290012850 / 
&RAMP ID='t', T=    0.150305356038 / 
&RAMP ID='t', T=    0.150320699227 / 
&RAMP ID='t', T=    0.150336042415 / 
&RAMP ID='t', T=    0.150351385604 / 
&RAMP ID='t', T=    0.150366728792 / 
&RAMP ID='t', T=    0.150382071980 / 
&RAMP ID='t', T=    0.150406959277 / 
&RAMP ID='t', T=    0.150431846574 / 
&RAMP ID='t', T=    0.150456733871 / 
&RAMP ID='t', T=    0.150481621168 / 
&RAMP ID='t', T=    0.150506508465 / 
&RAMP ID='t', T=    0.150531395762 / 
&RAMP ID='t', T=    0.150556283059 / 
&RAMP ID='t', T=    0.150581170356 / 
&RAMP ID='t', T=    0.150606057653 / 
&RAMP ID='t', T=    0.150630944950 / 
&RAMP ID='t', T=    0.150655832247 / 
&RAMP ID='t', T=    0.150680719544 / 
&RAMP ID='t', T=    0.150705606841 / 
&RAMP ID='t', T=    0.150730494138 / 
&RAMP ID='t', T=    0.150755381435 / 
&RAMP ID='t', T=    0.150780268732 / 
&RAMP ID='t', T=    0.150805156029 / 
&RAMP ID='t', T=    0.150830043326 / 
&RAMP ID='t', T=    0.150854930623 / 
&RAMP ID='t', T=    0.150879817920 / 
&RAMP ID='t', T=    0.150904705217 / 
&RAMP ID='t', T=    0.150929592514 / 
&RAMP ID='t', T=    0.150954479811 / 
&RAMP ID='t', T=    0.150979367107 / 
&RAMP ID='t', T=    0.151004254404 / 
&RAMP ID='t', T=    0.151029141701 / 
&RAMP ID='t', T=    0.151054028998 / 
&RAMP ID='t', T=    0.151071930260 / 
&RAMP ID='t', T=    0.151084378951 / 
&RAMP ID='t', T=    0.151093303242 / 
&RAMP ID='t', T=    0.151102227534 / 
&RAMP ID='t', T=    0.151111151826 / 
&RAMP ID='t', T=    0.151120076118 / 
&RAMP ID='t', T=    0.151129000410 / 
&RAMP ID='t', T=    0.151137924701 / 
&RAMP ID='t', T=    0.151146848993 / 
&RAMP ID='t', T=    0.151153134084 / 
&RAMP ID='t', T=    0.151157471783 / 
&RAMP ID='t', T=    0.151160622331 / 
&RAMP ID='t', T=    0.151163772880 / 
&RAMP ID='t', T=    0.151166923428 / 
&RAMP ID='t', T=    0.151170073976 / 
&RAMP ID='t', T=    0.151173224525 / 
&RAMP ID='t', T=    0.151176375073 / 
&RAMP ID='t', T=    0.151179525621 / 
&RAMP ID='t', T=    0.151181827086 / 
&RAMP ID='t', T=    0.151183534339 / 
&RAMP ID='t', T=    0.151185241593 / 
&RAMP ID='t', T=    0.151186948847 / 
&RAMP ID='t', T=    0.151188656101 / 
&RAMP ID='t', T=    0.151190363355 / 
&RAMP ID='t', T=    0.151192070609 / 
&RAMP ID='t', T=    0.151193777863 / 
&RAMP ID='t', T=    0.151195485116 / 
&RAMP ID='t', T=    0.151197192370 / 
&RAMP ID='t', T=    0.151200033630 / 
&RAMP ID='t', T=    0.151202874889 / 
&RAMP ID='t', T=    0.151205716148 / 
&RAMP ID='t', T=    0.151208557408 / 
&RAMP ID='t', T=    0.151213468395 / 
&RAMP ID='t', T=    0.151218379382 / 
&RAMP ID='t', T=    0.151225898908 / 
&RAMP ID='t', T=    0.151233418434 / 
&RAMP ID='t', T=    0.151240937960 / 
&RAMP ID='t', T=    0.151252923815 / 
&RAMP ID='t', T=    0.151264909670 / 
&RAMP ID='t', T=    0.151276895526 / 
&RAMP ID='t', T=    0.151288881381 / 
&RAMP ID='t', T=    0.151300867236 / 
&RAMP ID='t', T=    0.151312853091 / 
&RAMP ID='t', T=    0.151332516799 / 
&RAMP ID='t', T=    0.151352180506 / 
&RAMP ID='t', T=    0.151371844213 / 
&RAMP ID='t', T=    0.151391507920 / 
&RAMP ID='t', T=    0.151411171627 / 
&RAMP ID='t', T=    0.151430835334 / 
&RAMP ID='t', T=    0.151450499041 / 
&RAMP ID='t', T=    0.151470162748 / 
&RAMP ID='t', T=    0.151489826455 / 
&RAMP ID='t', T=    0.151509490162 / 
&RAMP ID='t', T=    0.151529153870 / 
&RAMP ID='t', T=    0.151548817577 / 
&RAMP ID='t', T=    0.151568481284 / 
&RAMP ID='t', T=    0.151588144991 / 
&RAMP ID='t', T=    0.151601847119 / 
&RAMP ID='t', T=    0.151611238299 / 
&RAMP ID='t', T=    0.151617915837 / 
&RAMP ID='t', T=    0.151624593375 / 
&RAMP ID='t', T=    0.151631270913 / 
&RAMP ID='t', T=    0.151637948451 / 
&RAMP ID='t', T=    0.151644625988 / 
&RAMP ID='t', T=    0.151651303526 / 
&RAMP ID='t', T=    0.151657981064 / 
&RAMP ID='t', T=    0.151662912441 / 
&RAMP ID='t', T=    0.151666513763 / 
&RAMP ID='t', T=    0.151670115086 / 
&RAMP ID='t', T=    0.151673716408 / 
&RAMP ID='t', T=    0.151677317731 / 
&RAMP ID='t', T=    0.151680919053 / 
&RAMP ID='t', T=    0.151684520376 / 
&RAMP ID='t', T=    0.151688121698 / 
&RAMP ID='t', T=    0.151691723021 / 
&RAMP ID='t', T=    0.151695324343 / 
&RAMP ID='t', T=    0.151698925665 / 
&RAMP ID='t', T=    0.151702526988 / 
&RAMP ID='t', T=    0.151706128310 / 
&RAMP ID='t', T=    0.151708768052 / 
&RAMP ID='t', T=    0.151710707803 / 
&RAMP ID='t', T=    0.151712647554 / 
&RAMP ID='t', T=    0.151714587305 / 
&RAMP ID='t', T=    0.151716527056 / 
&RAMP ID='t', T=    0.151718466807 / 
&RAMP ID='t', T=    0.151720406558 / 
&RAMP ID='t', T=    0.151722346309 / 
&RAMP ID='t', T=    0.151724286060 / 
&RAMP ID='t', T=    0.151726225811 / 
&RAMP ID='t', T=    0.151728165562 / 
&RAMP ID='t', T=    0.151730105312 / 
&RAMP ID='t', T=    0.151732045063 / 
&RAMP ID='t', T=    0.151733984814 / 
&RAMP ID='t', T=    0.151737137527 / 
&RAMP ID='t', T=    0.151740290240 / 
&RAMP ID='t', T=    0.151743442953 / 
&RAMP ID='t', T=    0.151746595666 / 
&RAMP ID='t', T=    0.151753863867 / 
&RAMP ID='t', T=    0.151761132069 / 
&RAMP ID='t', T=    0.151768400270 / 
&RAMP ID='t', T=    0.151775668471 / 
&RAMP ID='t', T=    0.151782936672 / 
&RAMP ID='t', T=    0.151790204873 / 
&RAMP ID='t', T=    0.151797473075 / 
&RAMP ID='t', T=    0.151811386467 / 
&RAMP ID='t', T=    0.151825299859 / 
&RAMP ID='t', T=    0.151835099699 / 
&RAMP ID='t', T=    0.151844899539 / 
&RAMP ID='t', T=    0.151854699380 / 
&RAMP ID='t', T=    0.151864499220 / 
&RAMP ID='t', T=    0.151874299060 / 
&RAMP ID='t', T=    0.151884098900 / 
&RAMP ID='t', T=    0.151893898740 / 
&RAMP ID='t', T=    0.151903698581 / 
&RAMP ID='t', T=    0.151913498421 / 
&RAMP ID='t', T=    0.151923298261 / 
&RAMP ID='t', T=    0.151933098101 / 
&RAMP ID='t', T=    0.151942897941 / 
&RAMP ID='t', T=    0.151952697782 / 
&RAMP ID='t', T=    0.151962497622 / 
&RAMP ID='t', T=    0.151972297462 / 
&RAMP ID='t', T=    0.151979350073 / 
&RAMP ID='t', T=    0.151984341682 / 
&RAMP ID='t', T=    0.151988041277 / 
&RAMP ID='t', T=    0.151991740871 / 
&RAMP ID='t', T=    0.151995440466 / 
&RAMP ID='t', T=    0.151999140060 / 
&RAMP ID='t', T=    0.152002839655 / 
&RAMP ID='t', T=    0.152006539249 / 
&RAMP ID='t', T=    0.152010238844 / 
&RAMP ID='t', T=    0.152013938439 / 
&RAMP ID='t', T=    0.152016592022 / 
&RAMP ID='t', T=    0.152018485196 / 
&RAMP ID='t', T=    0.152020378370 / 
&RAMP ID='t', T=    0.152022271544 / 
&RAMP ID='t', T=    0.152024164719 / 
&RAMP ID='t', T=    0.152026057893 / 
&RAMP ID='t', T=    0.152027951067 / 
&RAMP ID='t', T=    0.152029844241 / 
&RAMP ID='t', T=    0.152031737415 / 
&RAMP ID='t', T=    0.152033630590 / 
&RAMP ID='t', T=    0.152035523764 / 
&RAMP ID='t', T=    0.152038400542 / 
&RAMP ID='t', T=    0.152041277321 / 
&RAMP ID='t', T=    0.152044154100 / 
&RAMP ID='t', T=    0.152047030878 / 
&RAMP ID='t', T=    0.152049907657 / 
&RAMP ID='t', T=    0.152055474383 / 
&RAMP ID='t', T=    0.152061041110 / 
&RAMP ID='t', T=    0.152066607836 / 
&RAMP ID='t', T=    0.152072174563 / 
&RAMP ID='t', T=    0.152077741289 / 
&RAMP ID='t', T=    0.152086160776 / 
&RAMP ID='t', T=    0.152094580262 / 
&RAMP ID='t', T=    0.152102999749 / 
&RAMP ID='t', T=    0.152111419236 / 
&RAMP ID='t', T=    0.152119838722 / 
&RAMP ID='t', T=    0.152128258209 / 
&RAMP ID='t', T=    0.152136677695 / 
&RAMP ID='t', T=    0.152145097182 / 
&RAMP ID='t', T=    0.152153516669 / 
&RAMP ID='t', T=    0.152161936155 / 
&RAMP ID='t', T=    0.152170355642 / 
&RAMP ID='t', T=    0.152178775129 / 