&HEAD CHID='ign_delay_Methane_grimech30_T900K_Phi0p6', TITLE='ign_delay Methane_grimech30 T=900K Phi=0.6' /

&MISC GVEC(3)=0.0, NOISE=F, STRATIFICATION=F, SIMULATION_MODE='DNS' /

&RADI RADIATION=F/
&SURF ID='DEF',DEFAULT=T,ADIABATIC=T/

&COMB FINITE_RATE_MIN_TEMP=300,ZZ_MIN_GLOBAL=1E-15,INITIAL_UNMIXED_FRACTION=0.0,ODE_SOLVER='CVODE',ODE_MIN_ATOL=1E-15,ODE_REL_ERROR=1E-9/
&TIME T_END=10, RAMP_TIME='t' /
&DUMP FLUSH_FILE_BUFFERS=F, DT_DEVC=1e-20/

&CATF OTHER_FILES='../../Utilities/Input_Libraries/Chemical_Mechanisms/FDS/Methane_grimech30.fds' /

&MESH IJK=5,1,5, XB=0.0,1.0,0.0,0.2,0.0,1.0 /
&OBST XB=0.0,1.0,0.0,0.2,0.0,1.0/
&HOLE XB=0.4,0.6,-1.0,1.0,0.4,0.6/
&INIT XB=0.4,0.6,-1.0,1.0,0.4,0.6, MASS_FRACTION(1)=0.22511048, SPEC_ID(1)='O2',MASS_FRACTION(2)=0.03385944,SPEC_ID(2)='CH4',  TEMPERATURE=626.85 /
&DEVC XYZ=0.5,0.0,0.5, QUANTITY='MASS FRACTION', SPEC_ID='OH',  ID='OH' /
&DEVC XYZ=0.5,0.0,0.5, QUANTITY='TEMPERATURE', ID='TMP'/

&RAMP ID='t', T=    0.000000000082 / 
&RAMP ID='t', T=    0.000000818269 / 
&RAMP ID='t', T=    0.000009000138 / 
&RAMP ID='t', T=    0.000017182007 / 
&RAMP ID='t', T=    0.000039091928 / 
&RAMP ID='t', T=    0.000061001849 / 
&RAMP ID='t', T=    0.000082911771 / 
&RAMP ID='t', T=    0.000122738892 / 
&RAMP ID='t', T=    0.000191853934 / 
&RAMP ID='t', T=    0.000308857675 / 
&RAMP ID='t', T=    0.000489404219 / 
&RAMP ID='t', T=    0.000669950763 / 
&RAMP ID='t', T=    0.000850497308 / 
&RAMP ID='t', T=    0.001400567682 / 
&RAMP ID='t', T=    0.001950638057 / 
&RAMP ID='t', T=    0.002500708432 / 
&RAMP ID='t', T=    0.003050778806 / 
&RAMP ID='t', T=    0.003600849181 / 
&RAMP ID='t', T=    0.004768874206 / 
&RAMP ID='t', T=    0.005936899230 / 
&RAMP ID='t', T=    0.007104924255 / 
&RAMP ID='t', T=    0.008272949279 / 
&RAMP ID='t', T=    0.009440974304 / 
&RAMP ID='t', T=    0.011338708414 / 
&RAMP ID='t', T=    0.013236442524 / 
&RAMP ID='t', T=    0.015134176634 / 
&RAMP ID='t', T=    0.017031910743 / 
&RAMP ID='t', T=    0.018929644853 / 
&RAMP ID='t', T=    0.020827378963 / 
&RAMP ID='t', T=    0.022725113073 / 
&RAMP ID='t', T=    0.024622847183 / 
&RAMP ID='t', T=    0.026520581293 / 
&RAMP ID='t', T=    0.028418315403 / 
&RAMP ID='t', T=    0.030316049513 / 
&RAMP ID='t', T=    0.032213783623 / 
&RAMP ID='t', T=    0.034111517732 / 
&RAMP ID='t', T=    0.036009251842 / 
&RAMP ID='t', T=    0.037906985952 / 
&RAMP ID='t', T=    0.039804720062 / 
&RAMP ID='t', T=    0.041702454172 / 
&RAMP ID='t', T=    0.043600188282 / 
&RAMP ID='t', T=    0.045497922392 / 
&RAMP ID='t', T=    0.047395656502 / 
&RAMP ID='t', T=    0.049293390612 / 
&RAMP ID='t', T=    0.051191124722 / 
&RAMP ID='t', T=    0.053088858831 / 
&RAMP ID='t', T=    0.054986592941 / 
&RAMP ID='t', T=    0.056884327051 / 
&RAMP ID='t', T=    0.058782061161 / 
&RAMP ID='t', T=    0.060679795271 / 
&RAMP ID='t', T=    0.062577529381 / 
&RAMP ID='t', T=    0.064475263491 / 
&RAMP ID='t', T=    0.066372997601 / 
&RAMP ID='t', T=    0.068270731711 / 
&RAMP ID='t', T=    0.070168465820 / 
&RAMP ID='t', T=    0.072066199930 / 
&RAMP ID='t', T=    0.073963934040 / 
&RAMP ID='t', T=    0.075861668150 / 
&RAMP ID='t', T=    0.077759402260 / 
&RAMP ID='t', T=    0.079657136370 / 
&RAMP ID='t', T=    0.081554870480 / 
&RAMP ID='t', T=    0.083452604590 / 
&RAMP ID='t', T=    0.085350338700 / 
&RAMP ID='t', T=    0.087248072809 / 
&RAMP ID='t', T=    0.089145806919 / 
&RAMP ID='t', T=    0.091043541029 / 
&RAMP ID='t', T=    0.092941275139 / 
&RAMP ID='t', T=    0.094839009249 / 
&RAMP ID='t', T=    0.098112219064 / 
&RAMP ID='t', T=    0.101385428879 / 
&RAMP ID='t', T=    0.104658638695 / 
&RAMP ID='t', T=    0.107931848510 / 
&RAMP ID='t', T=    0.111205058325 / 
&RAMP ID='t', T=    0.114478268140 / 
&RAMP ID='t', T=    0.117751477955 / 
&RAMP ID='t', T=    0.121024687771 / 
&RAMP ID='t', T=    0.124297897586 / 
&RAMP ID='t', T=    0.127571107401 / 
&RAMP ID='t', T=    0.130844317216 / 
&RAMP ID='t', T=    0.134117527031 / 
&RAMP ID='t', T=    0.137390736847 / 
&RAMP ID='t', T=    0.140663946662 / 
&RAMP ID='t', T=    0.143937156477 / 
&RAMP ID='t', T=    0.147210366292 / 
&RAMP ID='t', T=    0.150483576107 / 
&RAMP ID='t', T=    0.153756785922 / 
&RAMP ID='t', T=    0.157029995738 / 
&RAMP ID='t', T=    0.160303205553 / 
&RAMP ID='t', T=    0.163576415368 / 
&RAMP ID='t', T=    0.166849625183 / 
&RAMP ID='t', T=    0.170122834998 / 
&RAMP ID='t', T=    0.173396044814 / 
&RAMP ID='t', T=    0.176669254629 / 
&RAMP ID='t', T=    0.179942464444 / 
&RAMP ID='t', T=    0.183215674259 / 
&RAMP ID='t', T=    0.186488884074 / 
&RAMP ID='t', T=    0.189762093890 / 
&RAMP ID='t', T=    0.193035303705 / 
&RAMP ID='t', T=    0.198056917448 / 
&RAMP ID='t', T=    0.203078531191 / 
&RAMP ID='t', T=    0.208100144934 / 
&RAMP ID='t', T=    0.213121758677 / 
&RAMP ID='t', T=    0.218143372420 / 
&RAMP ID='t', T=    0.223164986163 / 
&RAMP ID='t', T=    0.228186599906 / 
&RAMP ID='t', T=    0.233208213649 / 
&RAMP ID='t', T=    0.238229827391 / 
&RAMP ID='t', T=    0.243251441134 / 
&RAMP ID='t', T=    0.248273054877 / 
&RAMP ID='t', T=    0.253294668620 / 
&RAMP ID='t', T=    0.258316282363 / 
&RAMP ID='t', T=    0.263337896106 / 
&RAMP ID='t', T=    0.268359509849 / 
&RAMP ID='t', T=    0.273381123592 / 
&RAMP ID='t', T=    0.278402737335 / 
&RAMP ID='t', T=    0.283424351078 / 
&RAMP ID='t', T=    0.288445964821 / 
&RAMP ID='t', T=    0.293467578564 / 
&RAMP ID='t', T=    0.298489192307 / 
&RAMP ID='t', T=    0.303510806050 / 
&RAMP ID='t', T=    0.308532419793 / 
&RAMP ID='t', T=    0.313554033536 / 
&RAMP ID='t', T=    0.321139809131 / 
&RAMP ID='t', T=    0.328725584727 / 
&RAMP ID='t', T=    0.336311360322 / 
&RAMP ID='t', T=    0.343897135918 / 
&RAMP ID='t', T=    0.351482911513 / 
&RAMP ID='t', T=    0.359068687108 / 
&RAMP ID='t', T=    0.366654462704 / 
&RAMP ID='t', T=    0.374240238299 / 
&RAMP ID='t', T=    0.381826013895 / 
&RAMP ID='t', T=    0.389411789490 / 
&RAMP ID='t', T=    0.396997565085 / 
&RAMP ID='t', T=    0.404583340681 / 
&RAMP ID='t', T=    0.412169116276 / 
&RAMP ID='t', T=    0.419754891871 / 
&RAMP ID='t', T=    0.427340667467 / 
&RAMP ID='t', T=    0.434926443062 / 
&RAMP ID='t', T=    0.446676231870 / 
&RAMP ID='t', T=    0.458426020678 / 
&RAMP ID='t', T=    0.470175809486 / 
&RAMP ID='t', T=    0.481925598295 / 
&RAMP ID='t', T=    0.493675387103 / 
&RAMP ID='t', T=    0.505425175911 / 
&RAMP ID='t', T=    0.517174964719 / 
&RAMP ID='t', T=    0.528924753527 / 
&RAMP ID='t', T=    0.540674542335 / 
&RAMP ID='t', T=    0.552424331143 / 
&RAMP ID='t', T=    0.564174119951 / 
&RAMP ID='t', T=    0.575923908759 / 
&RAMP ID='t', T=    0.587673697567 / 
&RAMP ID='t', T=    0.599423486375 / 
&RAMP ID='t', T=    0.611173275183 / 
&RAMP ID='t', T=    0.629420434475 / 
&RAMP ID='t', T=    0.647667593767 / 
&RAMP ID='t', T=    0.665914753059 / 
&RAMP ID='t', T=    0.684161912351 / 
&RAMP ID='t', T=    0.702409071643 / 
&RAMP ID='t', T=    0.720656230935 / 
&RAMP ID='t', T=    0.738903390227 / 
&RAMP ID='t', T=    0.757150549519 / 
&RAMP ID='t', T=    0.775397708811 / 
&RAMP ID='t', T=    0.793644868103 / 
&RAMP ID='t', T=    0.811892027395 / 
&RAMP ID='t', T=    0.839432378696 / 
&RAMP ID='t', T=    0.866972729996 / 
&RAMP ID='t', T=    0.894513081296 / 
&RAMP ID='t', T=    0.922053432596 / 
&RAMP ID='t', T=    0.949593783896 / 
&RAMP ID='t', T=    0.977134135196 / 
&RAMP ID='t', T=    1.004674486496 / 
&RAMP ID='t', T=    1.032214837797 / 
&RAMP ID='t', T=    1.059755189097 / 
&RAMP ID='t', T=    1.087295540397 / 
&RAMP ID='t', T=    1.114835891697 / 
&RAMP ID='t', T=    1.142376242997 / 
&RAMP ID='t', T=    1.169916594297 / 
&RAMP ID='t', T=    1.197456945597 / 
&RAMP ID='t', T=    1.224997296897 / 
&RAMP ID='t', T=    1.252537648198 / 
&RAMP ID='t', T=    1.280077999498 / 
&RAMP ID='t', T=    1.307618350798 / 
&RAMP ID='t', T=    1.335158702098 / 
&RAMP ID='t', T=    1.362699053398 / 
&RAMP ID='t', T=    1.390239404698 / 
&RAMP ID='t', T=    1.417779755998 / 
&RAMP ID='t', T=    1.445320107299 / 
&RAMP ID='t', T=    1.472860458599 / 
&RAMP ID='t', T=    1.500400809899 / 
&RAMP ID='t', T=    1.527941161199 / 
&RAMP ID='t', T=    1.555481512499 / 
&RAMP ID='t', T=    1.583021863799 / 
&RAMP ID='t', T=    1.610562215099 / 
&RAMP ID='t', T=    1.638102566399 / 
&RAMP ID='t', T=    1.665642917700 / 
&RAMP ID='t', T=    1.693183269000 / 
&RAMP ID='t', T=    1.720723620300 / 
&RAMP ID='t', T=    1.748263971600 / 
&RAMP ID='t', T=    1.775804322900 / 
&RAMP ID='t', T=    1.818135839676 / 
&RAMP ID='t', T=    1.860467356452 / 
&RAMP ID='t', T=    1.902798873228 / 
&RAMP ID='t', T=    1.945130390004 / 
&RAMP ID='t', T=    1.987461906780 / 
&RAMP ID='t', T=    2.029793423556 / 
&RAMP ID='t', T=    2.072124940332 / 
&RAMP ID='t', T=    2.114456457108 / 
&RAMP ID='t', T=    2.156787973884 / 
&RAMP ID='t', T=    2.199119490660 / 
&RAMP ID='t', T=    2.241451007436 / 
&RAMP ID='t', T=    2.283782524212 / 
&RAMP ID='t', T=    2.326114040988 / 
&RAMP ID='t', T=    2.368445557764 / 
&RAMP ID='t', T=    2.410777074540 / 
&RAMP ID='t', T=    2.442172442824 / 
&RAMP ID='t', T=    2.473567811108 / 
&RAMP ID='t', T=    2.504963179392 / 
&RAMP ID='t', T=    2.536358547676 / 
&RAMP ID='t', T=    2.567753915960 / 
&RAMP ID='t', T=    2.599149284244 / 
&RAMP ID='t', T=    2.630544652528 / 
&RAMP ID='t', T=    2.661940020812 / 
&RAMP ID='t', T=    2.693335389096 / 
&RAMP ID='t', T=    2.724730757380 / 
&RAMP ID='t', T=    2.756126125664 / 
&RAMP ID='t', T=    2.787521493948 / 
&RAMP ID='t', T=    2.818916862232 / 
&RAMP ID='t', T=    2.841373676130 / 
&RAMP ID='t', T=    2.863830490028 / 
&RAMP ID='t', T=    2.886287303927 / 
&RAMP ID='t', T=    2.908744117825 / 
&RAMP ID='t', T=    2.931200931723 / 
&RAMP ID='t', T=    2.953657745621 / 
&RAMP ID='t', T=    2.976114559519 / 
&RAMP ID='t', T=    2.992584872499 / 
&RAMP ID='t', T=    3.009055185478 / 
&RAMP ID='t', T=    3.025525498457 / 
&RAMP ID='t', T=    3.041995811436 / 
&RAMP ID='t', T=    3.058466124416 / 
&RAMP ID='t', T=    3.074936437395 / 
&RAMP ID='t', T=    3.091406750374 / 
&RAMP ID='t', T=    3.107877063353 / 
&RAMP ID='t', T=    3.119876317646 / 
&RAMP ID='t', T=    3.131875571939 / 
&RAMP ID='t', T=    3.143874826232 / 
&RAMP ID='t', T=    3.155874080524 / 
&RAMP ID='t', T=    3.167873334817 / 
&RAMP ID='t', T=    3.179872589110 / 
&RAMP ID='t', T=    3.191871843402 / 
&RAMP ID='t', T=    3.203871097695 / 
&RAMP ID='t', T=    3.215870351988 / 
&RAMP ID='t', T=    3.227869606280 / 
&RAMP ID='t', T=    3.245908975191 / 
&RAMP ID='t', T=    3.263948344103 / 
&RAMP ID='t', T=    3.281987713014 / 
&RAMP ID='t', T=    3.300027081925 / 
&RAMP ID='t', T=    3.318066450836 / 
&RAMP ID='t', T=    3.336105819747 / 
&RAMP ID='t', T=    3.354145188658 / 
&RAMP ID='t', T=    3.372184557570 / 
&RAMP ID='t', T=    3.390223926481 / 
&RAMP ID='t', T=    3.408263295392 / 
&RAMP ID='t', T=    3.426302664303 / 
&RAMP ID='t', T=    3.444342033214 / 
&RAMP ID='t', T=    3.462381402125 / 
&RAMP ID='t', T=    3.480420771036 / 
&RAMP ID='t', T=    3.498460139948 / 
&RAMP ID='t', T=    3.516499508859 / 
&RAMP ID='t', T=    3.534538877770 / 
&RAMP ID='t', T=    3.552578246681 / 
&RAMP ID='t', T=    3.570617615592 / 
&RAMP ID='t', T=    3.588656984503 / 
&RAMP ID='t', T=    3.606696353415 / 
&RAMP ID='t', T=    3.624735722326 / 
&RAMP ID='t', T=    3.642775091237 / 
&RAMP ID='t', T=    3.660814460148 / 
&RAMP ID='t', T=    3.678853829059 / 
&RAMP ID='t', T=    3.696893197970 / 
&RAMP ID='t', T=    3.714932566881 / 
&RAMP ID='t', T=    3.732971935793 / 
&RAMP ID='t', T=    3.751011304704 / 
&RAMP ID='t', T=    3.769050673615 / 
&RAMP ID='t', T=    3.787090042526 / 
&RAMP ID='t', T=    3.805129411437 / 
&RAMP ID='t', T=    3.823168780348 / 
&RAMP ID='t', T=    3.841208149260 / 
&RAMP ID='t', T=    3.859247518171 / 
&RAMP ID='t', T=    3.877286887082 / 
&RAMP ID='t', T=    3.895326255993 / 
&RAMP ID='t', T=    3.913365624904 / 
&RAMP ID='t', T=    3.926731226102 / 
&RAMP ID='t', T=    3.940096827299 / 
&RAMP ID='t', T=    3.953462428496 / 
&RAMP ID='t', T=    3.966828029694 / 
&RAMP ID='t', T=    3.980193630891 / 
&RAMP ID='t', T=    3.993559232089 / 
&RAMP ID='t', T=    4.006924833286 / 
&RAMP ID='t', T=    4.020290434483 / 
&RAMP ID='t', T=    4.033656035681 / 
&RAMP ID='t', T=    4.047021636878 / 
&RAMP ID='t', T=    4.060387238076 / 
&RAMP ID='t', T=    4.073752839273 / 
&RAMP ID='t', T=    4.087118440471 / 
&RAMP ID='t', T=    4.100484041668 / 
&RAMP ID='t', T=    4.113849642865 / 
&RAMP ID='t', T=    4.127215244063 / 
&RAMP ID='t', T=    4.140580845260 / 
&RAMP ID='t', T=    4.153946446458 / 
&RAMP ID='t', T=    4.167312047655 / 
&RAMP ID='t', T=    4.180677648853 / 
&RAMP ID='t', T=    4.194043250050 / 
&RAMP ID='t', T=    4.207408851247 / 
&RAMP ID='t', T=    4.220774452445 / 
&RAMP ID='t', T=    4.234140053642 / 
&RAMP ID='t', T=    4.247505654840 / 
&RAMP ID='t', T=    4.260871256037 / 
&RAMP ID='t', T=    4.274236857234 / 
&RAMP ID='t', T=    4.287602458432 / 
&RAMP ID='t', T=    4.300968059629 / 
&RAMP ID='t', T=    4.314333660827 / 
&RAMP ID='t', T=    4.327699262024 / 
&RAMP ID='t', T=    4.341064863222 / 
&RAMP ID='t', T=    4.354430464419 / 
&RAMP ID='t', T=    4.367796065616 / 
&RAMP ID='t', T=    4.381161666814 / 
&RAMP ID='t', T=    4.394527268011 / 
&RAMP ID='t', T=    4.407892869209 / 
&RAMP ID='t', T=    4.421258470406 / 
&RAMP ID='t', T=    4.434624071603 / 
&RAMP ID='t', T=    4.447989672801 / 
&RAMP ID='t', T=    4.461355273998 / 
&RAMP ID='t', T=    4.474720875196 / 
&RAMP ID='t', T=    4.488086476393 / 
&RAMP ID='t', T=    4.501452077591 / 
&RAMP ID='t', T=    4.514817678788 / 
&RAMP ID='t', T=    4.528183279985 / 
&RAMP ID='t', T=    4.541548881183 / 
&RAMP ID='t', T=    4.554914482380 / 
&RAMP ID='t', T=    4.568280083578 / 
&RAMP ID='t', T=    4.578030993597 / 
&RAMP ID='t', T=    4.587781903617 / 
&RAMP ID='t', T=    4.597532813637 / 
&RAMP ID='t', T=    4.607283723656 / 
&RAMP ID='t', T=    4.614259568151 / 
&RAMP ID='t', T=    4.621235412646 / 
&RAMP ID='t', T=    4.628211257140 / 
&RAMP ID='t', T=    4.635187101635 / 
&RAMP ID='t', T=    4.642162946129 / 
&RAMP ID='t', T=    4.649138790624 / 
&RAMP ID='t', T=    4.656114635118 / 
&RAMP ID='t', T=    4.663090479613 / 
&RAMP ID='t', T=    4.670066324107 / 
&RAMP ID='t', T=    4.677042168602 / 
&RAMP ID='t', T=    4.684018013096 / 
&RAMP ID='t', T=    4.690993857591 / 
&RAMP ID='t', T=    4.697969702086 / 
&RAMP ID='t', T=    4.704945546580 / 
&RAMP ID='t', T=    4.711921391075 / 
&RAMP ID='t', T=    4.718897235569 / 
&RAMP ID='t', T=    4.725873080064 / 
&RAMP ID='t', T=    4.732848924558 / 
&RAMP ID='t', T=    4.739824769053 / 
&RAMP ID='t', T=    4.746800613547 / 
&RAMP ID='t', T=    4.753776458042 / 
&RAMP ID='t', T=    4.760752302536 / 
&RAMP ID='t', T=    4.767728147031 / 
&RAMP ID='t', T=    4.774703991526 / 
&RAMP ID='t', T=    4.781679836020 / 
&RAMP ID='t', T=    4.788655680515 / 
&RAMP ID='t', T=    4.795631525009 / 
&RAMP ID='t', T=    4.802607369504 / 
&RAMP ID='t', T=    4.809583213998 / 
&RAMP ID='t', T=    4.816559058493 / 
&RAMP ID='t', T=    4.823534902987 / 
&RAMP ID='t', T=    4.830510747482 / 
&RAMP ID='t', T=    4.837486591976 / 
&RAMP ID='t', T=    4.844462436471 / 
&RAMP ID='t', T=    4.851438280966 / 
&RAMP ID='t', T=    4.858414125460 / 
&RAMP ID='t', T=    4.868991977343 / 
&RAMP ID='t', T=    4.879569829226 / 
&RAMP ID='t', T=    4.890147681110 / 
&RAMP ID='t', T=    4.900725532993 / 
&RAMP ID='t', T=    4.911303384876 / 
&RAMP ID='t', T=    4.921881236759 / 
&RAMP ID='t', T=    4.932459088642 / 
&RAMP ID='t', T=    4.943036940526 / 
&RAMP ID='t', T=    4.953614792409 / 
&RAMP ID='t', T=    4.964192644292 / 
&RAMP ID='t', T=    4.974770496175 / 
&RAMP ID='t', T=    4.985348348058 / 
&RAMP ID='t', T=    4.995926199942 / 
&RAMP ID='t', T=    5.006504051825 / 
&RAMP ID='t', T=    5.017081903708 / 
&RAMP ID='t', T=    5.024208189481 / 
&RAMP ID='t', T=    5.029219624740 / 
&RAMP ID='t', T=    5.034231059999 / 
&RAMP ID='t', T=    5.039242495258 / 
&RAMP ID='t', T=    5.044253930517 / 
&RAMP ID='t', T=    5.049265365776 / 
&RAMP ID='t', T=    5.054276801035 / 
&RAMP ID='t', T=    5.057721063812 / 
&RAMP ID='t', T=    5.060193628971 / 
&RAMP ID='t', T=    5.062666194130 / 
&RAMP ID='t', T=    5.065138759289 / 
&RAMP ID='t', T=    5.066834519559 / 
&RAMP ID='t', T=    5.067986341133 / 
&RAMP ID='t', T=    5.069138162706 / 
&RAMP ID='t', T=    5.070289984280 / 
&RAMP ID='t', T=    5.071441805854 / 
&RAMP ID='t', T=    5.072247809801 / 
&RAMP ID='t', T=    5.073053813748 / 
&RAMP ID='t', T=    5.073859817695 / 
&RAMP ID='t', T=    5.074665821641 / 
&RAMP ID='t', T=    5.075242353678 / 
&RAMP ID='t', T=    5.075818885714 / 
&RAMP ID='t', T=    5.076395417750 / 
&RAMP ID='t', T=    5.076971949786 / 
&RAMP ID='t', T=    5.077548481823 / 
&RAMP ID='t', T=    5.078125013859 / 
&RAMP ID='t', T=    5.078701545895 / 
&RAMP ID='t', T=    5.079278077931 / 
&RAMP ID='t', T=    5.080265428121 / 
&RAMP ID='t', T=    5.081252778310 / 
&RAMP ID='t', T=    5.082240128499 / 
&RAMP ID='t', T=    5.083227478689 / 
&RAMP ID='t', T=    5.084214828878 / 
&RAMP ID='t', T=    5.085202179068 / 
&RAMP ID='t', T=    5.086189529257 / 
&RAMP ID='t', T=    5.087176879446 / 
&RAMP ID='t', T=    5.088164229636 / 
&RAMP ID='t', T=    5.089151579825 / 
&RAMP ID='t', T=    5.090138930015 / 
&RAMP ID='t', T=    5.091126280204 / 
&RAMP ID='t', T=    5.092652329891 / 
&RAMP ID='t', T=    5.094178379577 / 
&RAMP ID='t', T=    5.095704429264 / 
&RAMP ID='t', T=    5.097230478950 / 
&RAMP ID='t', T=    5.098756528637 / 
&RAMP ID='t', T=    5.102169803351 / 
&RAMP ID='t', T=    5.105583078065 / 
&RAMP ID='t', T=    5.108996352780 / 
&RAMP ID='t', T=    5.112409627494 / 
&RAMP ID='t', T=    5.115822902208 / 
&RAMP ID='t', T=    5.119236176922 / 
&RAMP ID='t', T=    5.122649451637 / 
&RAMP ID='t', T=    5.128180470499 / 
&RAMP ID='t', T=    5.133711489361 / 
&RAMP ID='t', T=    5.139242508224 / 
&RAMP ID='t', T=    5.144773527086 / 
&RAMP ID='t', T=    5.150304545949 / 
&RAMP ID='t', T=    5.155835564811 / 
&RAMP ID='t', T=    5.161366583673 / 
&RAMP ID='t', T=    5.166897602536 / 
&RAMP ID='t', T=    5.172428621398 / 
&RAMP ID='t', T=    5.177959640260 / 
&RAMP ID='t', T=    5.183490659123 / 
&RAMP ID='t', T=    5.189021677985 / 
&RAMP ID='t', T=    5.194552696847 / 
&RAMP ID='t', T=    5.200083715710 / 
&RAMP ID='t', T=    5.205614734572 / 
&RAMP ID='t', T=    5.209702381083 / 
&RAMP ID='t', T=    5.213790027594 / 
&RAMP ID='t', T=    5.217877674105 / 
&RAMP ID='t', T=    5.221965320616 / 
&RAMP ID='t', T=    5.226052967127 / 
&RAMP ID='t', T=    5.229057612310 / 
&RAMP ID='t', T=    5.232062257494 / 
&RAMP ID='t', T=    5.235066902677 / 
&RAMP ID='t', T=    5.238071547860 / 
&RAMP ID='t', T=    5.241076193043 / 
&RAMP ID='t', T=    5.244080838227 / 
&RAMP ID='t', T=    5.247085483410 / 
&RAMP ID='t', T=    5.250090128593 / 
&RAMP ID='t', T=    5.253094773776 / 
&RAMP ID='t', T=    5.256099418959 / 
&RAMP ID='t', T=    5.259104064143 / 
&RAMP ID='t', T=    5.262108709326 / 
&RAMP ID='t', T=    5.265113354509 / 
&RAMP ID='t', T=    5.268117999692 / 
&RAMP ID='t', T=    5.272968599061 / 
&RAMP ID='t', T=    5.277819198429 / 
&RAMP ID='t', T=    5.282669797798 / 
&RAMP ID='t', T=    5.287520397167 / 
&RAMP ID='t', T=    5.292370996535 / 
&RAMP ID='t', T=    5.297221595904 / 
&RAMP ID='t', T=    5.302072195272 / 
&RAMP ID='t', T=    5.306922794641 / 
&RAMP ID='t', T=    5.311773394010 / 
&RAMP ID='t', T=    5.316623993378 / 
&RAMP ID='t', T=    5.321474592747 / 
&RAMP ID='t', T=    5.326325192115 / 
&RAMP ID='t', T=    5.331175791484 / 
&RAMP ID='t', T=    5.334701525880 / 
&RAMP ID='t', T=    5.337316622931 / 
&RAMP ID='t', T=    5.339931719981 / 
&RAMP ID='t', T=    5.342546817032 / 
&RAMP ID='t', T=    5.345161914083 / 
&RAMP ID='t', T=    5.347777011134 / 
&RAMP ID='t', T=    5.350392108185 / 
&RAMP ID='t', T=    5.353007205236 / 
&RAMP ID='t', T=    5.355622302286 / 
&RAMP ID='t', T=    5.358237399337 / 
&RAMP ID='t', T=    5.360852496388 / 
&RAMP ID='t', T=    5.362698410251 / 
&RAMP ID='t', T=    5.364544324114 / 
&RAMP ID='t', T=    5.366390237977 / 
&RAMP ID='t', T=    5.368236151840 / 
&RAMP ID='t', T=    5.369459275646 / 
&RAMP ID='t', T=    5.370682399452 / 
&RAMP ID='t', T=    5.371905523259 / 
&RAMP ID='t', T=    5.373128647065 / 
&RAMP ID='t', T=    5.374351770871 / 
&RAMP ID='t', T=    5.375574894677 / 
&RAMP ID='t', T=    5.376798018484 / 
&RAMP ID='t', T=    5.378021142290 / 
&RAMP ID='t', T=    5.379244266096 / 
&RAMP ID='t', T=    5.380467389902 / 
&RAMP ID='t', T=    5.381366863854 / 
&RAMP ID='t', T=    5.382266337805 / 
&RAMP ID='t', T=    5.383165811756 / 
&RAMP ID='t', T=    5.384065285708 / 
&RAMP ID='t', T=    5.384964759659 / 
&RAMP ID='t', T=    5.385864233610 / 
&RAMP ID='t', T=    5.386763707562 / 
&RAMP ID='t', T=    5.387663181513 / 
&RAMP ID='t', T=    5.388562655464 / 
&RAMP ID='t', T=    5.390073267391 / 
&RAMP ID='t', T=    5.391583879318 / 
&RAMP ID='t', T=    5.393094491245 / 
&RAMP ID='t', T=    5.394605103172 / 
&RAMP ID='t', T=    5.396115715099 / 
&RAMP ID='t', T=    5.397626327026 / 
&RAMP ID='t', T=    5.399136938953 / 
&RAMP ID='t', T=    5.400647550880 / 
&RAMP ID='t', T=    5.402158162807 / 
&RAMP ID='t', T=    5.404692265985 / 
&RAMP ID='t', T=    5.407226369163 / 
&RAMP ID='t', T=    5.409760472341 / 
&RAMP ID='t', T=    5.412294575520 / 
&RAMP ID='t', T=    5.414828678698 / 
&RAMP ID='t', T=    5.417362781876 / 
&RAMP ID='t', T=    5.419896885055 / 
&RAMP ID='t', T=    5.422430988233 / 
&RAMP ID='t', T=    5.424965091411 / 
&RAMP ID='t', T=    5.427499194589 / 
&RAMP ID='t', T=    5.430033297768 / 
&RAMP ID='t', T=    5.432567400946 / 
&RAMP ID='t', T=    5.435101504124 / 
&RAMP ID='t', T=    5.437635607302 / 
&RAMP ID='t', T=    5.440169710481 / 
&RAMP ID='t', T=    5.442703813659 / 
&RAMP ID='t', T=    5.445237916837 / 
&RAMP ID='t', T=    5.447772020015 / 
&RAMP ID='t', T=    5.450306123194 / 
&RAMP ID='t', T=    5.452840226372 / 
&RAMP ID='t', T=    5.455374329550 / 
&RAMP ID='t', T=    5.457908432728 / 
&RAMP ID='t', T=    5.460442535907 / 
&RAMP ID='t', T=    5.462243531882 / 
&RAMP ID='t', T=    5.464044527857 / 
&RAMP ID='t', T=    5.465845523832 / 
&RAMP ID='t', T=    5.467646519807 / 
&RAMP ID='t', T=    5.468903476917 / 
&RAMP ID='t', T=    5.470160434028 / 
&RAMP ID='t', T=    5.471417391138 / 
&RAMP ID='t', T=    5.472674348249 / 
&RAMP ID='t', T=    5.473471350111 / 
&RAMP ID='t', T=    5.474268351972 / 
&RAMP ID='t', T=    5.475065353834 / 
&RAMP ID='t', T=    5.475862355696 / 
&RAMP ID='t', T=    5.476659357558 / 
&RAMP ID='t', T=    5.477456359419 / 
&RAMP ID='t', T=    5.478253361281 / 
&RAMP ID='t', T=    5.479050363143 / 
&RAMP ID='t', T=    5.479847365005 / 
&RAMP ID='t', T=    5.480644366867 / 
&RAMP ID='t', T=    5.481152580441 / 
&RAMP ID='t', T=    5.481519979281 / 
&RAMP ID='t', T=    5.481887378120 / 
&RAMP ID='t', T=    5.482254776960 / 
&RAMP ID='t', T=    5.482622175800 / 
&RAMP ID='t', T=    5.482989574639 / 
&RAMP ID='t', T=    5.483356973479 / 
&RAMP ID='t', T=    5.483908265765 / 
&RAMP ID='t', T=    5.484459558050 / 
&RAMP ID='t', T=    5.485010850336 / 
&RAMP ID='t', T=    5.485562142622 / 
&RAMP ID='t', T=    5.486113434908 / 
&RAMP ID='t', T=    5.486664727194 / 
&RAMP ID='t', T=    5.487216019480 / 
&RAMP ID='t', T=    5.488171236519 / 
&RAMP ID='t', T=    5.489126453559 / 
&RAMP ID='t', T=    5.490081670599 / 
&RAMP ID='t', T=    5.491036887638 / 
&RAMP ID='t', T=    5.491992104678 / 
&RAMP ID='t', T=    5.492947321718 / 
&RAMP ID='t', T=    5.493902538757 / 
&RAMP ID='t', T=    5.495358688501 / 
&RAMP ID='t', T=    5.496814838245 / 
&RAMP ID='t', T=    5.498270987989 / 
&RAMP ID='t', T=    5.499727137733 / 
&RAMP ID='t', T=    5.501183287476 / 
&RAMP ID='t', T=    5.502639437220 / 
&RAMP ID='t', T=    5.505259888617 / 
&RAMP ID='t', T=    5.506933896193 / 
&RAMP ID='t', T=    5.508607903769 / 
&RAMP ID='t', T=    5.510281911345 / 
&RAMP ID='t', T=    5.511955918922 / 
&RAMP ID='t', T=    5.513629926498 / 
&RAMP ID='t', T=    5.515303934074 / 
&RAMP ID='t', T=    5.516977941651 / 
&RAMP ID='t', T=    5.518651949227 / 
&RAMP ID='t', T=    5.520325956803 / 
&RAMP ID='t', T=    5.521999964380 / 
&RAMP ID='t', T=    5.523673971956 / 
&RAMP ID='t', T=    5.525347979532 / 
&RAMP ID='t', T=    5.527021987108 / 
&RAMP ID='t', T=    5.528695994685 / 
&RAMP ID='t', T=    5.530370002261 / 
&RAMP ID='t', T=    5.531567043734 / 
&RAMP ID='t', T=    5.532764085208 / 
&RAMP ID='t', T=    5.533961126681 / 
&RAMP ID='t', T=    5.535158168155 / 
&RAMP ID='t', T=    5.536355209628 / 
&RAMP ID='t', T=    5.537214184650 / 
&RAMP ID='t', T=    5.538073159672 / 
&RAMP ID='t', T=    5.538932134693 / 
&RAMP ID='t', T=    5.539791109715 / 
&RAMP ID='t', T=    5.540389092611 / 
&RAMP ID='t', T=    5.540987075507 / 
&RAMP ID='t', T=    5.541585058403 / 
&RAMP ID='t', T=    5.542183041299 / 
&RAMP ID='t', T=    5.542781024195 / 
&RAMP ID='t', T=    5.543379007091 / 
&RAMP ID='t', T=    5.543976989987 / 
&RAMP ID='t', T=    5.544574972883 / 
&RAMP ID='t', T=    5.545172955779 / 
&RAMP ID='t', T=    5.545770938675 / 
&RAMP ID='t', T=    5.546368921571 / 
&RAMP ID='t', T=    5.547294400853 / 
&RAMP ID='t', T=    5.548219880134 / 
&RAMP ID='t', T=    5.549145359416 / 
&RAMP ID='t', T=    5.550070838698 / 
&RAMP ID='t', T=    5.550996317979 / 
&RAMP ID='t', T=    5.552467274562 / 
&RAMP ID='t', T=    5.553938231144 / 
&RAMP ID='t', T=    5.555409187727 / 
&RAMP ID='t', T=    5.556880144309 / 
&RAMP ID='t', T=    5.558351100892 / 
&RAMP ID='t', T=    5.559822057474 / 
&RAMP ID='t', T=    5.561293014057 / 
&RAMP ID='t', T=    5.562763970639 / 
&RAMP ID='t', T=    5.564234927222 / 
&RAMP ID='t', T=    5.565705883804 / 
&RAMP ID='t', T=    5.567176840387 / 
&RAMP ID='t', T=    5.568647796969 / 
&RAMP ID='t', T=    5.570118753552 / 
&RAMP ID='t', T=    5.571113747729 / 
&RAMP ID='t', T=    5.571805991348 / 
&RAMP ID='t', T=    5.572498234967 / 
&RAMP ID='t', T=    5.573190478586 / 
&RAMP ID='t', T=    5.573882722205 / 
&RAMP ID='t', T=    5.574574965824 / 
&RAMP ID='t', T=    5.575267209443 / 
&RAMP ID='t', T=    5.575959453062 / 
&RAMP ID='t', T=    5.576471851312 / 
&RAMP ID='t', T=    5.576984249562 / 
&RAMP ID='t', T=    5.577496647812 / 
&RAMP ID='t', T=    5.578009046062 / 
&RAMP ID='t', T=    5.578521444312 / 
&RAMP ID='t', T=    5.579033842562 / 
&RAMP ID='t', T=    5.579546240811 / 
&RAMP ID='t', T=    5.580058639061 / 
&RAMP ID='t', T=    5.580438220781 / 
&RAMP ID='t', T=    5.580817802501 / 
&RAMP ID='t', T=    5.581197384221 / 
&RAMP ID='t', T=    5.581576965941 / 
&RAMP ID='t', T=    5.581829644242 / 
&RAMP ID='t', T=    5.582082322544 / 
&RAMP ID='t', T=    5.582335000845 / 
&RAMP ID='t', T=    5.582587679146 / 
&RAMP ID='t', T=    5.582770597866 / 
&RAMP ID='t', T=    5.582953516585 / 
&RAMP ID='t', T=    5.583136435305 / 
&RAMP ID='t', T=    5.583319354025 / 
&RAMP ID='t', T=    5.583502272744 / 
&RAMP ID='t', T=    5.583685191464 / 
&RAMP ID='t', T=    5.583868110183 / 
&RAMP ID='t', T=    5.584220985176 / 
&RAMP ID='t', T=    5.584573860169 / 
&RAMP ID='t', T=    5.584926735162 / 
&RAMP ID='t', T=    5.585279610155 / 
&RAMP ID='t', T=    5.585632485148 / 
&RAMP ID='t', T=    5.585985360140 / 
&RAMP ID='t', T=    5.586338235133 / 
&RAMP ID='t', T=    5.586970951796 / 
&RAMP ID='t', T=    5.587603668459 / 
&RAMP ID='t', T=    5.588236385122 / 
&RAMP ID='t', T=    5.588869101785 / 
&RAMP ID='t', T=    5.589501818447 / 
&RAMP ID='t', T=    5.590134535110 / 
&RAMP ID='t', T=    5.591181257666 / 
&RAMP ID='t', T=    5.591952505400 / 
&RAMP ID='t', T=    5.592723753134 / 
&RAMP ID='t', T=    5.593495000869 / 
&RAMP ID='t', T=    5.594266248603 / 
&RAMP ID='t', T=    5.595037496337 / 
&RAMP ID='t', T=    5.595808744071 / 
&RAMP ID='t', T=    5.596579991805 / 
&RAMP ID='t', T=    5.597351239539 / 
&RAMP ID='t', T=    5.598122487274 / 
&RAMP ID='t', T=    5.598893735008 / 
&RAMP ID='t', T=    5.599664982742 / 
&RAMP ID='t', T=    5.600436230476 / 
&RAMP ID='t', T=    5.601207478210 / 
&RAMP ID='t', T=    5.601978725944 / 
&RAMP ID='t', T=    5.602749973679 / 
&RAMP ID='t', T=    5.603521221413 / 
&RAMP ID='t', T=    5.604292469147 / 
&RAMP ID='t', T=    5.605063716881 / 
&RAMP ID='t', T=    5.605834964615 / 
&RAMP ID='t', T=    5.606365392029 / 
&RAMP ID='t', T=    5.606725208086 / 
&RAMP ID='t', T=    5.606976202192 / 
&RAMP ID='t', T=    5.607157914312 / 
&RAMP ID='t', T=    5.607339626431 / 
&RAMP ID='t', T=    5.607521338550 / 
&RAMP ID='t', T=    5.607703050670 / 
&RAMP ID='t', T=    5.607884762789 / 
&RAMP ID='t', T=    5.608015391248 / 
&RAMP ID='t', T=    5.608108210124 / 
&RAMP ID='t', T=    5.608176209149 / 
&RAMP ID='t', T=    5.608244208174 / 
&RAMP ID='t', T=    5.608312207199 / 
&RAMP ID='t', T=    5.608380206223 / 
&RAMP ID='t', T=    5.608448205248 / 
&RAMP ID='t', T=    5.608516204273 / 
&RAMP ID='t', T=    5.608566009781 / 
&RAMP ID='t', T=    5.608601488944 / 
&RAMP ID='t', T=    5.608627365936 / 
&RAMP ID='t', T=    5.608653242927 / 
&RAMP ID='t', T=    5.608679119919 / 
&RAMP ID='t', T=    5.608720460250 / 
&RAMP ID='t', T=    5.608761800582 / 
&RAMP ID='t', T=    5.608803140913 / 
&RAMP ID='t', T=    5.608844481244 / 
&RAMP ID='t', T=    5.608885821575 / 
&RAMP ID='t', T=    5.608996101290 / 
&RAMP ID='t', T=    5.609177866518 / 
&RAMP ID='t', T=    5.609359631746 / 
&RAMP ID='t', T=    5.609541396974 / 
&RAMP ID='t', T=    5.609723162202 / 
&RAMP ID='t', T=    5.609904927430 / 
&RAMP ID='t', T=    5.610273107159 / 
&RAMP ID='t', T=    5.610528920698 / 
&RAMP ID='t', T=    5.610784734237 / 
&RAMP ID='t', T=    5.611040547776 / 
&RAMP ID='t', T=    5.611296361315 / 
&RAMP ID='t', T=    5.611552174854 / 
&RAMP ID='t', T=    5.612149926265 / 
&RAMP ID='t', T=    5.612747677676 / 
&RAMP ID='t', T=    5.613147513382 / 
&RAMP ID='t', T=    5.613547349088 / 