&HEAD CHID='ign_delay_Methane_grimech30_T900K_Phi1p0', TITLE='ign_delay Methane_grimech30 T=900K Phi=1.0' /

&MISC GVEC(3)=0.0, NOISE=F, STRATIFICATION=F, SIMULATION_MODE='DNS' /

&RADI RADIATION=F/
&SURF ID='DEF',DEFAULT=T,ADIABATIC=T/

&COMB FINITE_RATE_MIN_TEMP=300,ZZ_MIN_GLOBAL=1E-15,INITIAL_UNMIXED_FRACTION=0.0,ODE_SOLVER='CVODE',ODE_MIN_ATOL=1E-15,ODE_REL_ERROR=1E-9/
&TIME T_END=10, RAMP_TIME='t' /
&DUMP FLUSH_FILE_BUFFERS=F, DT_DEVC=1e-20/

&CATF OTHER_FILES='../../Utilities/Input_Libraries/Chemical_Mechanisms/FDS/Methane_grimech30.fds' /

&MESH IJK=5,1,5, XB=0.0,1.0,0.0,0.2,0.0,1.0 /
&OBST XB=0.0,1.0,0.0,0.2,0.0,1.0/
&HOLE XB=0.4,0.6,-1.0,1.0,0.4,0.6/
&INIT XB=0.4,0.6,-1.0,1.0,0.4,0.6, MASS_FRACTION(1)=0.22014124, SPEC_ID(1)='O2',MASS_FRACTION(2)=0.05518667,SPEC_ID(2)='CH4',  TEMPERATURE=626.85 /
&DEVC XYZ=0.5,0.0,0.5, QUANTITY='MASS FRACTION', SPEC_ID='OH',  ID='OH' /
&DEVC XYZ=0.5,0.0,0.5, QUANTITY='TEMPERATURE', ID='TMP'/

&RAMP ID='t', T=    0.000000000058 / 
&RAMP ID='t', T=    0.000000583992 / 
&RAMP ID='t', T=    0.000006423323 / 
&RAMP ID='t', T=    0.000012262654 / 
&RAMP ID='t', T=    0.000030155201 / 
&RAMP ID='t', T=    0.000048047749 / 
&RAMP ID='t', T=    0.000065940297 / 
&RAMP ID='t', T=    0.000098306024 / 
&RAMP ID='t', T=    0.000154081085 / 
&RAMP ID='t', T=    0.000247983828 / 
&RAMP ID='t', T=    0.000391415835 / 
&RAMP ID='t', T=    0.000534847843 / 
&RAMP ID='t', T=    0.000678279850 / 
&RAMP ID='t', T=    0.001072555846 / 
&RAMP ID='t', T=    0.001466831841 / 
&RAMP ID='t', T=    0.001861107837 / 
&RAMP ID='t', T=    0.002255383833 / 
&RAMP ID='t', T=    0.002649659829 / 
&RAMP ID='t', T=    0.003711271114 / 
&RAMP ID='t', T=    0.004772882400 / 
&RAMP ID='t', T=    0.005834493685 / 
&RAMP ID='t', T=    0.006896104970 / 
&RAMP ID='t', T=    0.007957716256 / 
&RAMP ID='t', T=    0.009019327541 / 
&RAMP ID='t', T=    0.010080938827 / 
&RAMP ID='t', T=    0.011142550112 / 
&RAMP ID='t', T=    0.012204161398 / 
&RAMP ID='t', T=    0.013265772683 / 
&RAMP ID='t', T=    0.014327383968 / 
&RAMP ID='t', T=    0.015388995254 / 
&RAMP ID='t', T=    0.016450606539 / 
&RAMP ID='t', T=    0.017512217825 / 
&RAMP ID='t', T=    0.018573829110 / 
&RAMP ID='t', T=    0.019635440396 / 
&RAMP ID='t', T=    0.020697051681 / 
&RAMP ID='t', T=    0.021758662966 / 
&RAMP ID='t', T=    0.022820274252 / 
&RAMP ID='t', T=    0.023881885537 / 
&RAMP ID='t', T=    0.024943496823 / 
&RAMP ID='t', T=    0.026005108108 / 
&RAMP ID='t', T=    0.027066719394 / 
&RAMP ID='t', T=    0.028128330679 / 
&RAMP ID='t', T=    0.029189941964 / 
&RAMP ID='t', T=    0.030251553250 / 
&RAMP ID='t', T=    0.031313164535 / 
&RAMP ID='t', T=    0.032374775821 / 
&RAMP ID='t', T=    0.033436387106 / 
&RAMP ID='t', T=    0.034497998392 / 
&RAMP ID='t', T=    0.035559609677 / 
&RAMP ID='t', T=    0.036621220963 / 
&RAMP ID='t', T=    0.037682832248 / 
&RAMP ID='t', T=    0.038744443533 / 
&RAMP ID='t', T=    0.039806054819 / 
&RAMP ID='t', T=    0.040867666104 / 
&RAMP ID='t', T=    0.041929277390 / 
&RAMP ID='t', T=    0.042965115571 / 
&RAMP ID='t', T=    0.044000953753 / 
&RAMP ID='t', T=    0.045036791935 / 
&RAMP ID='t', T=    0.046072630116 / 
&RAMP ID='t', T=    0.047108468298 / 
&RAMP ID='t', T=    0.049089859839 / 
&RAMP ID='t', T=    0.051071251380 / 
&RAMP ID='t', T=    0.053052642921 / 
&RAMP ID='t', T=    0.055034034462 / 
&RAMP ID='t', T=    0.057015426002 / 
&RAMP ID='t', T=    0.058996817543 / 
&RAMP ID='t', T=    0.060978209084 / 
&RAMP ID='t', T=    0.062959600625 / 
&RAMP ID='t', T=    0.064940992166 / 
&RAMP ID='t', T=    0.066922383707 / 
&RAMP ID='t', T=    0.068903775248 / 
&RAMP ID='t', T=    0.070885166789 / 
&RAMP ID='t', T=    0.072866558330 / 
&RAMP ID='t', T=    0.074847949871 / 
&RAMP ID='t', T=    0.076829341412 / 
&RAMP ID='t', T=    0.078810732953 / 
&RAMP ID='t', T=    0.080792124494 / 
&RAMP ID='t', T=    0.082773516035 / 
&RAMP ID='t', T=    0.084754907576 / 
&RAMP ID='t', T=    0.086736299117 / 
&RAMP ID='t', T=    0.088717690658 / 
&RAMP ID='t', T=    0.090699082199 / 
&RAMP ID='t', T=    0.092680473740 / 
&RAMP ID='t', T=    0.094661865281 / 
&RAMP ID='t', T=    0.096643256821 / 
&RAMP ID='t', T=    0.098624648362 / 
&RAMP ID='t', T=    0.100606039903 / 
&RAMP ID='t', T=    0.102587431444 / 
&RAMP ID='t', T=    0.104568822985 / 
&RAMP ID='t', T=    0.106550214526 / 
&RAMP ID='t', T=    0.108531606067 / 
&RAMP ID='t', T=    0.110512997608 / 
&RAMP ID='t', T=    0.112494389149 / 
&RAMP ID='t', T=    0.114475780690 / 
&RAMP ID='t', T=    0.116457172231 / 
&RAMP ID='t', T=    0.118438563772 / 
&RAMP ID='t', T=    0.120419955313 / 
&RAMP ID='t', T=    0.122401346854 / 
&RAMP ID='t', T=    0.124382738395 / 
&RAMP ID='t', T=    0.126364129936 / 
&RAMP ID='t', T=    0.129341466195 / 
&RAMP ID='t', T=    0.132318802454 / 
&RAMP ID='t', T=    0.135296138713 / 
&RAMP ID='t', T=    0.138273474972 / 
&RAMP ID='t', T=    0.141250811231 / 
&RAMP ID='t', T=    0.144228147490 / 
&RAMP ID='t', T=    0.147205483749 / 
&RAMP ID='t', T=    0.150182820008 / 
&RAMP ID='t', T=    0.153160156267 / 
&RAMP ID='t', T=    0.156137492526 / 
&RAMP ID='t', T=    0.159114828785 / 
&RAMP ID='t', T=    0.162092165044 / 
&RAMP ID='t', T=    0.166634376139 / 
&RAMP ID='t', T=    0.171176587235 / 
&RAMP ID='t', T=    0.175718798330 / 
&RAMP ID='t', T=    0.180261009426 / 
&RAMP ID='t', T=    0.184803220522 / 
&RAMP ID='t', T=    0.189345431617 / 
&RAMP ID='t', T=    0.193887642713 / 
&RAMP ID='t', T=    0.198429853808 / 
&RAMP ID='t', T=    0.202972064904 / 
&RAMP ID='t', T=    0.207514276000 / 
&RAMP ID='t', T=    0.212056487095 / 
&RAMP ID='t', T=    0.216598698191 / 
&RAMP ID='t', T=    0.221140909286 / 
&RAMP ID='t', T=    0.225683120382 / 
&RAMP ID='t', T=    0.230225331477 / 
&RAMP ID='t', T=    0.234767542573 / 
&RAMP ID='t', T=    0.239309753669 / 
&RAMP ID='t', T=    0.243851964764 / 
&RAMP ID='t', T=    0.248394175860 / 
&RAMP ID='t', T=    0.252936386955 / 
&RAMP ID='t', T=    0.257478598051 / 
&RAMP ID='t', T=    0.262020809147 / 
&RAMP ID='t', T=    0.266563020242 / 
&RAMP ID='t', T=    0.271105231338 / 
&RAMP ID='t', T=    0.275647442433 / 
&RAMP ID='t', T=    0.282474511612 / 
&RAMP ID='t', T=    0.289301580792 / 
&RAMP ID='t', T=    0.296128649971 / 
&RAMP ID='t', T=    0.302955719150 / 
&RAMP ID='t', T=    0.309782788329 / 
&RAMP ID='t', T=    0.316609857508 / 
&RAMP ID='t', T=    0.323436926688 / 
&RAMP ID='t', T=    0.330263995867 / 
&RAMP ID='t', T=    0.337091065046 / 
&RAMP ID='t', T=    0.343918134225 / 
&RAMP ID='t', T=    0.350745203404 / 
&RAMP ID='t', T=    0.357572272583 / 
&RAMP ID='t', T=    0.367820131966 / 
&RAMP ID='t', T=    0.378067991349 / 
&RAMP ID='t', T=    0.388315850731 / 
&RAMP ID='t', T=    0.398563710114 / 
&RAMP ID='t', T=    0.408811569496 / 
&RAMP ID='t', T=    0.419059428879 / 
&RAMP ID='t', T=    0.429307288261 / 
&RAMP ID='t', T=    0.439555147644 / 
&RAMP ID='t', T=    0.449803007027 / 
&RAMP ID='t', T=    0.460050866409 / 
&RAMP ID='t', T=    0.470298725792 / 
&RAMP ID='t', T=    0.480546585174 / 
&RAMP ID='t', T=    0.490794444557 / 
&RAMP ID='t', T=    0.501042303939 / 
&RAMP ID='t', T=    0.511290163322 / 
&RAMP ID='t', T=    0.527226497260 / 
&RAMP ID='t', T=    0.543162831198 / 
&RAMP ID='t', T=    0.559099165136 / 
&RAMP ID='t', T=    0.575035499074 / 
&RAMP ID='t', T=    0.590971833012 / 
&RAMP ID='t', T=    0.606908166950 / 
&RAMP ID='t', T=    0.622844500888 / 
&RAMP ID='t', T=    0.638780834826 / 
&RAMP ID='t', T=    0.654717168764 / 
&RAMP ID='t', T=    0.670653502703 / 
&RAMP ID='t', T=    0.686589836641 / 
&RAMP ID='t', T=    0.702526170579 / 
&RAMP ID='t', T=    0.718462504517 / 
&RAMP ID='t', T=    0.734398838455 / 
&RAMP ID='t', T=    0.750335172393 / 
&RAMP ID='t', T=    0.775481669608 / 
&RAMP ID='t', T=    0.800628166823 / 
&RAMP ID='t', T=    0.825774664038 / 
&RAMP ID='t', T=    0.850921161252 / 
&RAMP ID='t', T=    0.876067658467 / 
&RAMP ID='t', T=    0.901214155682 / 
&RAMP ID='t', T=    0.926360652897 / 
&RAMP ID='t', T=    0.951507150112 / 
&RAMP ID='t', T=    0.976653647327 / 
&RAMP ID='t', T=    1.001800144542 / 
&RAMP ID='t', T=    1.040601518322 / 
&RAMP ID='t', T=    1.079402892102 / 
&RAMP ID='t', T=    1.118204265882 / 
&RAMP ID='t', T=    1.157005639661 / 
&RAMP ID='t', T=    1.195807013441 / 
&RAMP ID='t', T=    1.234608387221 / 
&RAMP ID='t', T=    1.273409761001 / 
&RAMP ID='t', T=    1.312211134781 / 
&RAMP ID='t', T=    1.351012508561 / 
&RAMP ID='t', T=    1.389813882340 / 
&RAMP ID='t', T=    1.428615256120 / 
&RAMP ID='t', T=    1.467416629900 / 
&RAMP ID='t', T=    1.506218003680 / 
&RAMP ID='t', T=    1.545019377460 / 
&RAMP ID='t', T=    1.583820751240 / 
&RAMP ID='t', T=    1.622622125020 / 
&RAMP ID='t', T=    1.661423498799 / 
&RAMP ID='t', T=    1.700224872579 / 
&RAMP ID='t', T=    1.739026246359 / 
&RAMP ID='t', T=    1.777827620139 / 
&RAMP ID='t', T=    1.816628993919 / 
&RAMP ID='t', T=    1.855430367699 / 
&RAMP ID='t', T=    1.894231741478 / 
&RAMP ID='t', T=    1.933033115258 / 
&RAMP ID='t', T=    1.961196793838 / 
&RAMP ID='t', T=    1.989360472418 / 
&RAMP ID='t', T=    2.017524150998 / 
&RAMP ID='t', T=    2.045687829578 / 
&RAMP ID='t', T=    2.073851508158 / 
&RAMP ID='t', T=    2.102015186738 / 
&RAMP ID='t', T=    2.130178865318 / 
&RAMP ID='t', T=    2.158342543898 / 
&RAMP ID='t', T=    2.178797848964 / 
&RAMP ID='t', T=    2.199253154030 / 
&RAMP ID='t', T=    2.219708459096 / 
&RAMP ID='t', T=    2.240163764162 / 
&RAMP ID='t', T=    2.260619069229 / 
&RAMP ID='t', T=    2.281074374295 / 
&RAMP ID='t', T=    2.301529679361 / 
&RAMP ID='t', T=    2.321984984427 / 
&RAMP ID='t', T=    2.342440289493 / 
&RAMP ID='t', T=    2.362895594560 / 
&RAMP ID='t', T=    2.383350899626 / 
&RAMP ID='t', T=    2.403806204692 / 
&RAMP ID='t', T=    2.436011727889 / 
&RAMP ID='t', T=    2.468217251086 / 
&RAMP ID='t', T=    2.500422774283 / 
&RAMP ID='t', T=    2.532628297480 / 
&RAMP ID='t', T=    2.564833820678 / 
&RAMP ID='t', T=    2.597039343875 / 
&RAMP ID='t', T=    2.629244867072 / 
&RAMP ID='t', T=    2.661450390269 / 
&RAMP ID='t', T=    2.693655913466 / 
&RAMP ID='t', T=    2.725861436663 / 
&RAMP ID='t', T=    2.758066959860 / 
&RAMP ID='t', T=    2.790272483057 / 
&RAMP ID='t', T=    2.822478006254 / 
&RAMP ID='t', T=    2.854683529451 / 
&RAMP ID='t', T=    2.886889052648 / 
&RAMP ID='t', T=    2.919094575846 / 
&RAMP ID='t', T=    2.951300099043 / 
&RAMP ID='t', T=    2.983505622240 / 
&RAMP ID='t', T=    3.015711145437 / 
&RAMP ID='t', T=    3.047916668634 / 
&RAMP ID='t', T=    3.080122191831 / 
&RAMP ID='t', T=    3.112327715028 / 
&RAMP ID='t', T=    3.144533238225 / 
&RAMP ID='t', T=    3.176738761422 / 
&RAMP ID='t', T=    3.208944284619 / 
&RAMP ID='t', T=    3.241149807817 / 
&RAMP ID='t', T=    3.264740113360 / 
&RAMP ID='t', T=    3.288330418904 / 
&RAMP ID='t', T=    3.311920724448 / 
&RAMP ID='t', T=    3.335511029992 / 
&RAMP ID='t', T=    3.359101335535 / 
&RAMP ID='t', T=    3.382691641079 / 
&RAMP ID='t', T=    3.406281946623 / 
&RAMP ID='t', T=    3.429872252167 / 
&RAMP ID='t', T=    3.453462557710 / 
&RAMP ID='t', T=    3.477052863254 / 
&RAMP ID='t', T=    3.500643168798 / 
&RAMP ID='t', T=    3.524233474342 / 
&RAMP ID='t', T=    3.547823779885 / 
&RAMP ID='t', T=    3.571414085429 / 
&RAMP ID='t', T=    3.595004390973 / 
&RAMP ID='t', T=    3.618594696517 / 
&RAMP ID='t', T=    3.642185002060 / 
&RAMP ID='t', T=    3.665775307604 / 
&RAMP ID='t', T=    3.682250379878 / 
&RAMP ID='t', T=    3.698725452152 / 
&RAMP ID='t', T=    3.715200524425 / 
&RAMP ID='t', T=    3.731675596699 / 
&RAMP ID='t', T=    3.748150668973 / 
&RAMP ID='t', T=    3.764625741246 / 
&RAMP ID='t', T=    3.781100813520 / 
&RAMP ID='t', T=    3.797575885794 / 
&RAMP ID='t', T=    3.814050958067 / 
&RAMP ID='t', T=    3.830526030341 / 
&RAMP ID='t', T=    3.847001102615 / 
&RAMP ID='t', T=    3.863476174889 / 
&RAMP ID='t', T=    3.879951247162 / 
&RAMP ID='t', T=    3.896426319436 / 
&RAMP ID='t', T=    3.924199672421 / 
&RAMP ID='t', T=    3.951973025407 / 
&RAMP ID='t', T=    3.979746378392 / 
&RAMP ID='t', T=    4.007519731377 / 
&RAMP ID='t', T=    4.035293084363 / 
&RAMP ID='t', T=    4.063066437348 / 
&RAMP ID='t', T=    4.090839790333 / 
&RAMP ID='t', T=    4.118613143318 / 
&RAMP ID='t', T=    4.146386496304 / 
&RAMP ID='t', T=    4.174159849289 / 
&RAMP ID='t', T=    4.201933202274 / 
&RAMP ID='t', T=    4.229706555260 / 
&RAMP ID='t', T=    4.257479908245 / 
&RAMP ID='t', T=    4.277947810528 / 
&RAMP ID='t', T=    4.298415712810 / 
&RAMP ID='t', T=    4.318883615093 / 
&RAMP ID='t', T=    4.339351517376 / 
&RAMP ID='t', T=    4.359819419659 / 
&RAMP ID='t', T=    4.380287321942 / 
&RAMP ID='t', T=    4.400755224224 / 
&RAMP ID='t', T=    4.421223126507 / 
&RAMP ID='t', T=    4.441691028790 / 
&RAMP ID='t', T=    4.462158931073 / 
&RAMP ID='t', T=    4.482626833355 / 
&RAMP ID='t', T=    4.497798464424 / 
&RAMP ID='t', T=    4.512970095493 / 
&RAMP ID='t', T=    4.528141726562 / 
&RAMP ID='t', T=    4.543313357631 / 
&RAMP ID='t', T=    4.558484988700 / 
&RAMP ID='t', T=    4.573656619769 / 
&RAMP ID='t', T=    4.588828250838 / 
&RAMP ID='t', T=    4.603999881907 / 
&RAMP ID='t', T=    4.619171512976 / 
&RAMP ID='t', T=    4.634343144045 / 
&RAMP ID='t', T=    4.644970011667 / 
&RAMP ID='t', T=    4.652850393184 / 
&RAMP ID='t', T=    4.660730774701 / 
&RAMP ID='t', T=    4.668611156218 / 
&RAMP ID='t', T=    4.676491537735 / 
&RAMP ID='t', T=    4.684371919251 / 
&RAMP ID='t', T=    4.692252300768 / 
&RAMP ID='t', T=    4.700132682285 / 
&RAMP ID='t', T=    4.708013063802 / 
&RAMP ID='t', T=    4.715893445319 / 
&RAMP ID='t', T=    4.723773826836 / 
&RAMP ID='t', T=    4.731654208353 / 
&RAMP ID='t', T=    4.739534589869 / 
&RAMP ID='t', T=    4.747414971386 / 
&RAMP ID='t', T=    4.753139977574 / 
&RAMP ID='t', T=    4.758864983762 / 
&RAMP ID='t', T=    4.764589989950 / 
&RAMP ID='t', T=    4.770314996138 / 
&RAMP ID='t', T=    4.776040002326 / 
&RAMP ID='t', T=    4.781765008514 / 
&RAMP ID='t', T=    4.787490014701 / 
&RAMP ID='t', T=    4.793215020889 / 
&RAMP ID='t', T=    4.798940027077 / 
&RAMP ID='t', T=    4.804665033265 / 
&RAMP ID='t', T=    4.810390039453 / 
&RAMP ID='t', T=    4.816115045641 / 
&RAMP ID='t', T=    4.821840051829 / 
&RAMP ID='t', T=    4.827565058017 / 
&RAMP ID='t', T=    4.833290064204 / 
&RAMP ID='t', T=    4.842206762826 / 
&RAMP ID='t', T=    4.851123461448 / 
&RAMP ID='t', T=    4.860040160070 / 
&RAMP ID='t', T=    4.868956858692 / 
&RAMP ID='t', T=    4.885048284222 / 
&RAMP ID='t', T=    4.901139709753 / 
&RAMP ID='t', T=    4.917231135283 / 
&RAMP ID='t', T=    4.933322560814 / 
&RAMP ID='t', T=    4.949413986345 / 
&RAMP ID='t', T=    4.965505411875 / 
&RAMP ID='t', T=    4.981596837406 / 
&RAMP ID='t', T=    4.997688262936 / 
&RAMP ID='t', T=    5.013779688467 / 
&RAMP ID='t', T=    5.029871113997 / 
&RAMP ID='t', T=    5.045962539528 / 
&RAMP ID='t', T=    5.062053965059 / 
&RAMP ID='t', T=    5.078145390589 / 
&RAMP ID='t', T=    5.094236816120 / 
&RAMP ID='t', T=    5.110328241650 / 
&RAMP ID='t', T=    5.126419667181 / 
&RAMP ID='t', T=    5.142511092711 / 
&RAMP ID='t', T=    5.158602518242 / 
&RAMP ID='t', T=    5.174693943773 / 
&RAMP ID='t', T=    5.190785369303 / 
&RAMP ID='t', T=    5.206876794834 / 
&RAMP ID='t', T=    5.222968220364 / 
&RAMP ID='t', T=    5.239059645895 / 
&RAMP ID='t', T=    5.255151071425 / 
&RAMP ID='t', T=    5.271242496956 / 
&RAMP ID='t', T=    5.287333922487 / 
&RAMP ID='t', T=    5.303425348017 / 
&RAMP ID='t', T=    5.319516773548 / 
&RAMP ID='t', T=    5.335608199078 / 
&RAMP ID='t', T=    5.351699624609 / 
&RAMP ID='t', T=    5.367791050139 / 
&RAMP ID='t', T=    5.383882475670 / 
&RAMP ID='t', T=    5.399973901201 / 
&RAMP ID='t', T=    5.416065326731 / 
&RAMP ID='t', T=    5.432156752262 / 
&RAMP ID='t', T=    5.448248177792 / 
&RAMP ID='t', T=    5.459293257686 / 
&RAMP ID='t', T=    5.470338337580 / 
&RAMP ID='t', T=    5.481383417474 / 
&RAMP ID='t', T=    5.492428497368 / 
&RAMP ID='t', T=    5.503473577262 / 
&RAMP ID='t', T=    5.514518657156 / 
&RAMP ID='t', T=    5.525563737050 / 
&RAMP ID='t', T=    5.536608816944 / 
&RAMP ID='t', T=    5.547653896838 / 
&RAMP ID='t', T=    5.558698976732 / 
&RAMP ID='t', T=    5.569744056626 / 
&RAMP ID='t', T=    5.580789136520 / 
&RAMP ID='t', T=    5.591834216414 / 
&RAMP ID='t', T=    5.610438716251 / 
&RAMP ID='t', T=    5.629043216087 / 
&RAMP ID='t', T=    5.642753841400 / 
&RAMP ID='t', T=    5.656464466713 / 
&RAMP ID='t', T=    5.670175092025 / 
&RAMP ID='t', T=    5.683885717338 / 
&RAMP ID='t', T=    5.697596342651 / 
&RAMP ID='t', T=    5.711306967963 / 
&RAMP ID='t', T=    5.725017593276 / 
&RAMP ID='t', T=    5.738728218589 / 
&RAMP ID='t', T=    5.752438843901 / 
&RAMP ID='t', T=    5.766149469214 / 
&RAMP ID='t', T=    5.779860094527 / 
&RAMP ID='t', T=    5.793570719839 / 
&RAMP ID='t', T=    5.807281345152 / 
&RAMP ID='t', T=    5.820991970464 / 
&RAMP ID='t', T=    5.834702595777 / 
&RAMP ID='t', T=    5.844691637484 / 
&RAMP ID='t', T=    5.854680679190 / 
&RAMP ID='t', T=    5.864669720896 / 
&RAMP ID='t', T=    5.874658762603 / 
&RAMP ID='t', T=    5.881433529461 / 
&RAMP ID='t', T=    5.886230581195 / 
&RAMP ID='t', T=    5.891027632929 / 
&RAMP ID='t', T=    5.895824684664 / 
&RAMP ID='t', T=    5.900621736398 / 
&RAMP ID='t', T=    5.905418788132 / 
&RAMP ID='t', T=    5.910215839866 / 
&RAMP ID='t', T=    5.915012891600 / 
&RAMP ID='t', T=    5.919809943335 / 
&RAMP ID='t', T=    5.924606995069 / 
&RAMP ID='t', T=    5.929404046803 / 
&RAMP ID='t', T=    5.934201098537 / 
&RAMP ID='t', T=    5.938998150271 / 
&RAMP ID='t', T=    5.943795202006 / 
&RAMP ID='t', T=    5.947325628819 / 
&RAMP ID='t', T=    5.950856055632 / 
&RAMP ID='t', T=    5.954386482445 / 
&RAMP ID='t', T=    5.957916909258 / 
&RAMP ID='t', T=    5.961447336071 / 
&RAMP ID='t', T=    5.964977762884 / 
&RAMP ID='t', T=    5.968508189697 / 
&RAMP ID='t', T=    5.972038616510 / 
&RAMP ID='t', T=    5.975569043323 / 
&RAMP ID='t', T=    5.979099470136 / 
&RAMP ID='t', T=    5.982629896949 / 
&RAMP ID='t', T=    5.986160323762 / 
&RAMP ID='t', T=    5.989690750575 / 
&RAMP ID='t', T=    5.993221177388 / 
&RAMP ID='t', T=    5.996751604201 / 
&RAMP ID='t', T=    6.000282031014 / 
&RAMP ID='t', T=    6.003812457827 / 
&RAMP ID='t', T=    6.007342884640 / 
&RAMP ID='t', T=    6.010873311453 / 
&RAMP ID='t', T=    6.013300819977 / 
&RAMP ID='t', T=    6.015073361937 / 
&RAMP ID='t', T=    6.016845903897 / 
&RAMP ID='t', T=    6.018618445857 / 
&RAMP ID='t', T=    6.020390987817 / 
&RAMP ID='t', T=    6.022163529777 / 
&RAMP ID='t', T=    6.023936071737 / 
&RAMP ID='t', T=    6.025708613697 / 
&RAMP ID='t', T=    6.027481155658 / 
&RAMP ID='t', T=    6.029253697618 / 
&RAMP ID='t', T=    6.031919464745 / 
&RAMP ID='t', T=    6.034585231873 / 
&RAMP ID='t', T=    6.037250999001 / 
&RAMP ID='t', T=    6.039916766129 / 
&RAMP ID='t', T=    6.044792881360 / 
&RAMP ID='t', T=    6.049668996591 / 
&RAMP ID='t', T=    6.054545111821 / 
&RAMP ID='t', T=    6.059421227052 / 
&RAMP ID='t', T=    6.067043606334 / 
&RAMP ID='t', T=    6.074665985617 / 
&RAMP ID='t', T=    6.082288364899 / 
&RAMP ID='t', T=    6.089910744181 / 
&RAMP ID='t', T=    6.097533123463 / 
&RAMP ID='t', T=    6.109488411872 / 
&RAMP ID='t', T=    6.121443700280 / 
&RAMP ID='t', T=    6.133398988688 / 
&RAMP ID='t', T=    6.145354277096 / 
&RAMP ID='t', T=    6.157309565504 / 
&RAMP ID='t', T=    6.169264853913 / 
&RAMP ID='t', T=    6.181220142321 / 
&RAMP ID='t', T=    6.193175430729 / 
&RAMP ID='t', T=    6.205130719137 / 
&RAMP ID='t', T=    6.217086007546 / 
&RAMP ID='t', T=    6.229041295954 / 
&RAMP ID='t', T=    6.240996584362 / 
&RAMP ID='t', T=    6.252951872770 / 
&RAMP ID='t', T=    6.264907161179 / 
&RAMP ID='t', T=    6.273389757093 / 
&RAMP ID='t', T=    6.279598942433 / 
&RAMP ID='t', T=    6.285808127773 / 
&RAMP ID='t', T=    6.292017313113 / 
&RAMP ID='t', T=    6.298226498453 / 
&RAMP ID='t', T=    6.302714467487 / 
&RAMP ID='t', T=    6.307202436521 / 
&RAMP ID='t', T=    6.311690405556 / 
&RAMP ID='t', T=    6.316178374590 / 
&RAMP ID='t', T=    6.320666343624 / 
&RAMP ID='t', T=    6.325154312658 / 
&RAMP ID='t', T=    6.329642281692 / 
&RAMP ID='t', T=    6.334130250727 / 
&RAMP ID='t', T=    6.338618219761 / 
&RAMP ID='t', T=    6.341833344737 / 
&RAMP ID='t', T=    6.345048469714 / 
&RAMP ID='t', T=    6.348263594690 / 
&RAMP ID='t', T=    6.351478719666 / 
&RAMP ID='t', T=    6.354693844643 / 
&RAMP ID='t', T=    6.357908969619 / 
&RAMP ID='t', T=    6.361124094595 / 
&RAMP ID='t', T=    6.364339219572 / 
&RAMP ID='t', T=    6.367554344548 / 
&RAMP ID='t', T=    6.370769469525 / 
&RAMP ID='t', T=    6.373984594501 / 
&RAMP ID='t', T=    6.377199719477 / 
&RAMP ID='t', T=    6.380414844454 / 
&RAMP ID='t', T=    6.383629969430 / 
&RAMP ID='t', T=    6.386845094406 / 
&RAMP ID='t', T=    6.391963148428 / 
&RAMP ID='t', T=    6.397081202450 / 
&RAMP ID='t', T=    6.402199256472 / 
&RAMP ID='t', T=    6.407317310494 / 
&RAMP ID='t', T=    6.412435364515 / 
&RAMP ID='t', T=    6.417553418537 / 
&RAMP ID='t', T=    6.422671472559 / 
&RAMP ID='t', T=    6.431123239316 / 
&RAMP ID='t', T=    6.439575006074 / 
&RAMP ID='t', T=    6.448026772831 / 
&RAMP ID='t', T=    6.456478539589 / 
&RAMP ID='t', T=    6.464930306346 / 
&RAMP ID='t', T=    6.473382073104 / 
&RAMP ID='t', T=    6.481833839861 / 
&RAMP ID='t', T=    6.490285606619 / 
&RAMP ID='t', T=    6.498737373376 / 
&RAMP ID='t', T=    6.507189140134 / 
&RAMP ID='t', T=    6.513400235107 / 
&RAMP ID='t', T=    6.519611330080 / 
&RAMP ID='t', T=    6.525822425053 / 
&RAMP ID='t', T=    6.532033520026 / 
&RAMP ID='t', T=    6.538244614999 / 
&RAMP ID='t', T=    6.544455709973 / 
&RAMP ID='t', T=    6.548622635799 / 
&RAMP ID='t', T=    6.551531796573 / 
&RAMP ID='t', T=    6.554440957347 / 
&RAMP ID='t', T=    6.557350118121 / 
&RAMP ID='t', T=    6.560259278895 / 
&RAMP ID='t', T=    6.563168439668 / 
&RAMP ID='t', T=    6.566077600442 / 
&RAMP ID='t', T=    6.568986761216 / 
&RAMP ID='t', T=    6.571895921990 / 
&RAMP ID='t', T=    6.574805082764 / 
&RAMP ID='t', T=    6.576798970409 / 
&RAMP ID='t', T=    6.578792858055 / 
&RAMP ID='t', T=    6.580786745701 / 
&RAMP ID='t', T=    6.582780633347 / 
&RAMP ID='t', T=    6.584774520992 / 
&RAMP ID='t', T=    6.586768408638 / 
&RAMP ID='t', T=    6.588762296284 / 
&RAMP ID='t', T=    6.590756183929 / 
&RAMP ID='t', T=    6.592750071575 / 
&RAMP ID='t', T=    6.594162251058 / 
&RAMP ID='t', T=    6.595574430540 / 
&RAMP ID='t', T=    6.596986610023 / 
&RAMP ID='t', T=    6.598398789505 / 
&RAMP ID='t', T=    6.599810968988 / 
&RAMP ID='t', T=    6.601223148470 / 
&RAMP ID='t', T=    6.602635327953 / 
&RAMP ID='t', T=    6.604047507435 / 
&RAMP ID='t', T=    6.605459686918 / 
&RAMP ID='t', T=    6.606871866400 / 
&RAMP ID='t', T=    6.608284045882 / 
&RAMP ID='t', T=    6.609696225365 / 
&RAMP ID='t', T=    6.611108404847 / 
&RAMP ID='t', T=    6.612520584330 / 
&RAMP ID='t', T=    6.613932763812 / 
&RAMP ID='t', T=    6.616198915678 / 
&RAMP ID='t', T=    6.618465067544 / 
&RAMP ID='t', T=    6.620731219410 / 
&RAMP ID='t', T=    6.622997371276 / 
&RAMP ID='t', T=    6.626654525418 / 
&RAMP ID='t', T=    6.630311679559 / 
&RAMP ID='t', T=    6.633968833700 / 
&RAMP ID='t', T=    6.637625987842 / 
&RAMP ID='t', T=    6.641283141983 / 
&RAMP ID='t', T=    6.646958693425 / 
&RAMP ID='t', T=    6.652634244866 / 
&RAMP ID='t', T=    6.658309796308 / 
&RAMP ID='t', T=    6.663985347750 / 
&RAMP ID='t', T=    6.669660899191 / 
&RAMP ID='t', T=    6.675336450633 / 
&RAMP ID='t', T=    6.681012002074 / 
&RAMP ID='t', T=    6.686687553516 / 
&RAMP ID='t', T=    6.692363104957 / 
&RAMP ID='t', T=    6.698038656399 / 
&RAMP ID='t', T=    6.703714207841 / 
&RAMP ID='t', T=    6.707869663500 / 
&RAMP ID='t', T=    6.712025119159 / 
&RAMP ID='t', T=    6.716180574818 / 
&RAMP ID='t', T=    6.720336030477 / 
&RAMP ID='t', T=    6.723289364581 / 
&RAMP ID='t', T=    6.725456169906 / 
&RAMP ID='t', T=    6.727622975232 / 
&RAMP ID='t', T=    6.729789780557 / 
&RAMP ID='t', T=    6.731956585883 / 
&RAMP ID='t', T=    6.734123391208 / 
&RAMP ID='t', T=    6.736290196534 / 
&RAMP ID='t', T=    6.738457001859 / 
&RAMP ID='t', T=    6.740623807185 / 
&RAMP ID='t', T=    6.742790612510 / 
&RAMP ID='t', T=    6.744957417836 / 
&RAMP ID='t', T=    6.747124223161 / 
&RAMP ID='t', T=    6.749291028486 / 
&RAMP ID='t', T=    6.751457833812 / 
&RAMP ID='t', T=    6.753624639137 / 
&RAMP ID='t', T=    6.755791444463 / 
&RAMP ID='t', T=    6.757958249788 / 
&RAMP ID='t', T=    6.760125055114 / 
&RAMP ID='t', T=    6.761701993933 / 
&RAMP ID='t', T=    6.762852201909 / 
&RAMP ID='t', T=    6.764002409885 / 
&RAMP ID='t', T=    6.765152617860 / 
&RAMP ID='t', T=    6.766302825836 / 
&RAMP ID='t', T=    6.767453033812 / 
&RAMP ID='t', T=    6.768603241788 / 
&RAMP ID='t', T=    6.769753449763 / 
&RAMP ID='t', T=    6.770903657739 / 
&RAMP ID='t', T=    6.772053865715 / 
&RAMP ID='t', T=    6.773204073690 / 
&RAMP ID='t', T=    6.774354281666 / 
&RAMP ID='t', T=    6.775504489642 / 
&RAMP ID='t', T=    6.776654697618 / 
&RAMP ID='t', T=    6.778660606917 / 
&RAMP ID='t', T=    6.780666516217 / 
&RAMP ID='t', T=    6.782672425516 / 
&RAMP ID='t', T=    6.784678334816 / 
&RAMP ID='t', T=    6.786684244116 / 
&RAMP ID='t', T=    6.788690153415 / 
&RAMP ID='t', T=    6.790696062715 / 
&RAMP ID='t', T=    6.792701972015 / 
&RAMP ID='t', T=    6.794707881314 / 
&RAMP ID='t', T=    6.798459469338 / 
&RAMP ID='t', T=    6.802211057361 / 
&RAMP ID='t', T=    6.804889347572 / 
&RAMP ID='t', T=    6.807567637784 / 
&RAMP ID='t', T=    6.810245927995 / 
&RAMP ID='t', T=    6.812924218206 / 
&RAMP ID='t', T=    6.815602508417 / 
&RAMP ID='t', T=    6.818280798628 / 
&RAMP ID='t', T=    6.820959088840 / 
&RAMP ID='t', T=    6.823637379051 / 
&RAMP ID='t', T=    6.826315669262 / 
&RAMP ID='t', T=    6.828993959473 / 
&RAMP ID='t', T=    6.831672249685 / 
&RAMP ID='t', T=    6.834350539896 / 
&RAMP ID='t', T=    6.837028830107 / 
&RAMP ID='t', T=    6.839707120318 / 
&RAMP ID='t', T=    6.842385410529 / 
&RAMP ID='t', T=    6.844324484222 / 
&RAMP ID='t', T=    6.845753501938 / 
&RAMP ID='t', T=    6.847182519654 / 
&RAMP ID='t', T=    6.848611537370 / 
&RAMP ID='t', T=    6.850040555086 / 
&RAMP ID='t', T=    6.851469572802 / 
&RAMP ID='t', T=    6.852898590518 / 
&RAMP ID='t', T=    6.854327608234 / 
&RAMP ID='t', T=    6.855756625950 / 
&RAMP ID='t', T=    6.857185643666 / 
&RAMP ID='t', T=    6.858614661382 / 
&RAMP ID='t', T=    6.860043679098 / 
&RAMP ID='t', T=    6.861472696814 / 
&RAMP ID='t', T=    6.862901714529 / 
&RAMP ID='t', T=    6.864330732245 / 
&RAMP ID='t', T=    6.865759749961 / 
&RAMP ID='t', T=    6.867188767677 / 
&RAMP ID='t', T=    6.868617785393 / 
&RAMP ID='t', T=    6.869636194952 / 
&RAMP ID='t', T=    6.870367233566 / 
&RAMP ID='t', T=    6.871098272180 / 
&RAMP ID='t', T=    6.871829310794 / 
&RAMP ID='t', T=    6.872560349408 / 
&RAMP ID='t', T=    6.873291388022 / 
&RAMP ID='t', T=    6.874022426636 / 
&RAMP ID='t', T=    6.874753465250 / 
&RAMP ID='t', T=    6.875484503864 / 
&RAMP ID='t', T=    6.876215542478 / 
&RAMP ID='t', T=    6.876946581092 / 
&RAMP ID='t', T=    6.877677619706 / 
&RAMP ID='t', T=    6.878858175546 / 
&RAMP ID='t', T=    6.880038731385 / 
&RAMP ID='t', T=    6.881219287224 / 
&RAMP ID='t', T=    6.882399843064 / 
&RAMP ID='t', T=    6.883580398903 / 
&RAMP ID='t', T=    6.884760954742 / 
&RAMP ID='t', T=    6.885941510582 / 
&RAMP ID='t', T=    6.887815556999 / 
&RAMP ID='t', T=    6.889689603416 / 
&RAMP ID='t', T=    6.891563649834 / 
&RAMP ID='t', T=    6.893437696251 / 
&RAMP ID='t', T=    6.895311742669 / 
&RAMP ID='t', T=    6.898146198312 / 
&RAMP ID='t', T=    6.900980653955 / 
&RAMP ID='t', T=    6.903815109599 / 
&RAMP ID='t', T=    6.906649565242 / 
&RAMP ID='t', T=    6.909484020886 / 
&RAMP ID='t', T=    6.912318476529 / 
&RAMP ID='t', T=    6.915152932172 / 
&RAMP ID='t', T=    6.917987387816 / 
&RAMP ID='t', T=    6.920821843459 / 
&RAMP ID='t', T=    6.923656299102 / 
&RAMP ID='t', T=    6.925631236893 / 
&RAMP ID='t', T=    6.927606174683 / 
&RAMP ID='t', T=    6.929581112474 / 
&RAMP ID='t', T=    6.931556050264 / 
&RAMP ID='t', T=    6.932836903923 / 
&RAMP ID='t', T=    6.933782400502 / 
&RAMP ID='t', T=    6.934727897082 / 
&RAMP ID='t', T=    6.935673393662 / 
&RAMP ID='t', T=    6.936618890242 / 
&RAMP ID='t', T=    6.937564386822 / 
&RAMP ID='t', T=    6.938509883402 / 
&RAMP ID='t', T=    6.939455379981 / 
&RAMP ID='t', T=    6.940400876561 / 
&RAMP ID='t', T=    6.941346373141 / 
&RAMP ID='t', T=    6.941973099182 / 
&RAMP ID='t', T=    6.942405476691 / 
&RAMP ID='t', T=    6.942837854201 / 
&RAMP ID='t', T=    6.943270231711 / 
&RAMP ID='t', T=    6.943702609220 / 
&RAMP ID='t', T=    6.944134986730 / 
&RAMP ID='t', T=    6.944567364240 / 
&RAMP ID='t', T=    6.944999741749 / 
&RAMP ID='t', T=    6.945432119259 / 
&RAMP ID='t', T=    6.945864496769 / 
&RAMP ID='t', T=    6.946296874278 / 
&RAMP ID='t', T=    6.946591260664 / 
&RAMP ID='t', T=    6.946785181560 / 
&RAMP ID='t', T=    6.946915348207 / 
&RAMP ID='t', T=    6.947005736212 / 
&RAMP ID='t', T=    6.947070832647 / 
&RAMP ID='t', T=    6.947135929081 / 
&RAMP ID='t', T=    6.947201025516 / 
&RAMP ID='t', T=    6.947266121950 / 
&RAMP ID='t', T=    6.947331218385 / 
&RAMP ID='t', T=    6.947396314819 / 
&RAMP ID='t', T=    6.947461411254 / 
&RAMP ID='t', T=    6.947566542535 / 
&RAMP ID='t', T=    6.947671673815 / 
&RAMP ID='t', T=    6.947776805096 / 
&RAMP ID='t', T=    6.947881936377 / 
&RAMP ID='t', T=    6.948117178637 / 
&RAMP ID='t', T=    6.948676563834 / 
&RAMP ID='t', T=    6.949235949031 / 
&RAMP ID='t', T=    6.949795334228 / 
&RAMP ID='t', T=    6.950354719426 / 
&RAMP ID='t', T=    6.950914104623 / 