&HEAD CHID='ign_delay_Methane_grimech30_T1000K_Phi0p6', TITLE='ign_delay Methane_grimech30 T=1000K Phi=0.6' /

&MISC GVEC(3)=0.0, NOISE=F, STRATIFICATION=F, SIMULATION_MODE='DNS' /

&RADI RADIATION=F/
&SURF ID='DEF',DEFAULT=T,ADIABATIC=T/

&COMB FINITE_RATE_MIN_TEMP=300,ZZ_MIN_GLOBAL=1E-15,INITIAL_UNMIXED_FRACTION=0.0,ODE_SOLVER='CVODE',ODE_MIN_ATOL=1E-15,ODE_REL_ERROR=1E-9/
&TIME T_END=10, RAMP_TIME='t' /
&DUMP FLUSH_FILE_BUFFERS=F, DT_DEVC=1e-20/

&CATF OTHER_FILES='../../Utilities/Input_Libraries/Chemical_Mechanisms/FDS/Methane_grimech30.fds' /

&MESH IJK=5,1,5, XB=0.0,1.0,0.0,0.2,0.0,1.0 /
&OBST XB=0.0,1.0,0.0,0.2,0.0,1.0/
&HOLE XB=0.4,0.6,-1.0,1.0,0.4,0.6/
&INIT XB=0.4,0.6,-1.0,1.0,0.4,0.6, MASS_FRACTION(1)=0.22511048, SPEC_ID(1)='O2',MASS_FRACTION(2)=0.03385944,SPEC_ID(2)='CH4',  TEMPERATURE=726.85 /
&DEVC XYZ=0.5,0.0,0.5, QUANTITY='MASS FRACTION', SPEC_ID='OH',  ID='OH' /
&DEVC XYZ=0.5,0.0,0.5, QUANTITY='TEMPERATURE', ID='TMP'/

&RAMP ID='t', T=    0.000000000008 / 
&RAMP ID='t', T=    0.000000082430 / 
&RAMP ID='t', T=    0.000000906649 / 
&RAMP ID='t', T=    0.000002518739 / 
&RAMP ID='t', T=    0.000004978461 / 
&RAMP ID='t', T=    0.000007438183 / 
&RAMP ID='t', T=    0.000011479724 / 
&RAMP ID='t', T=    0.000018771154 / 
&RAMP ID='t', T=    0.000026062583 / 
&RAMP ID='t', T=    0.000038309130 / 
&RAMP ID='t', T=    0.000050555677 / 
&RAMP ID='t', T=    0.000071703767 / 
&RAMP ID='t', T=    0.000103468683 / 
&RAMP ID='t', T=    0.000135233599 / 
&RAMP ID='t', T=    0.000166998515 / 
&RAMP ID='t', T=    0.000198763430 / 
&RAMP ID='t', T=    0.000260137336 / 
&RAMP ID='t', T=    0.000321511242 / 
&RAMP ID='t', T=    0.000382885148 / 
&RAMP ID='t', T=    0.000497540845 / 
&RAMP ID='t', T=    0.000675945987 / 
&RAMP ID='t', T=    0.000854351128 / 
&RAMP ID='t', T=    0.001032756270 / 
&RAMP ID='t', T=    0.001307974775 / 
&RAMP ID='t', T=    0.001583193280 / 
&RAMP ID='t', T=    0.001858411786 / 
&RAMP ID='t', T=    0.002133630291 / 
&RAMP ID='t', T=    0.002408848797 / 
&RAMP ID='t', T=    0.002684067302 / 
&RAMP ID='t', T=    0.002959285807 / 
&RAMP ID='t', T=    0.003234504313 / 
&RAMP ID='t', T=    0.003509722818 / 
&RAMP ID='t', T=    0.003926251910 / 
&RAMP ID='t', T=    0.004342781002 / 
&RAMP ID='t', T=    0.004759310093 / 
&RAMP ID='t', T=    0.005175839185 / 
&RAMP ID='t', T=    0.005592368277 / 
&RAMP ID='t', T=    0.006008897369 / 
&RAMP ID='t', T=    0.006425426460 / 
&RAMP ID='t', T=    0.006841955552 / 
&RAMP ID='t', T=    0.007258484644 / 
&RAMP ID='t', T=    0.007675013736 / 
&RAMP ID='t', T=    0.008091542827 / 
&RAMP ID='t', T=    0.008508071919 / 
&RAMP ID='t', T=    0.008924601011 / 
&RAMP ID='t', T=    0.009341130103 / 
&RAMP ID='t', T=    0.009757659194 / 
&RAMP ID='t', T=    0.010174188286 / 
&RAMP ID='t', T=    0.010590717378 / 
&RAMP ID='t', T=    0.011007246470 / 
&RAMP ID='t', T=    0.011423775561 / 
&RAMP ID='t', T=    0.011840304653 / 
&RAMP ID='t', T=    0.012256833745 / 
&RAMP ID='t', T=    0.012673362837 / 
&RAMP ID='t', T=    0.013089891929 / 
&RAMP ID='t', T=    0.013506421020 / 
&RAMP ID='t', T=    0.013922950112 / 
&RAMP ID='t', T=    0.014339479204 / 
&RAMP ID='t', T=    0.014756008296 / 
&RAMP ID='t', T=    0.015172537387 / 
&RAMP ID='t', T=    0.015589066479 / 
&RAMP ID='t', T=    0.016005595571 / 
&RAMP ID='t', T=    0.016422124663 / 
&RAMP ID='t', T=    0.016838653754 / 
&RAMP ID='t', T=    0.017255182846 / 
&RAMP ID='t', T=    0.017671711938 / 
&RAMP ID='t', T=    0.018088241030 / 
&RAMP ID='t', T=    0.018504770121 / 
&RAMP ID='t', T=    0.018921299213 / 
&RAMP ID='t', T=    0.019337828305 / 
&RAMP ID='t', T=    0.019754357397 / 
&RAMP ID='t', T=    0.020170886488 / 
&RAMP ID='t', T=    0.020587415580 / 
&RAMP ID='t', T=    0.021003944672 / 
&RAMP ID='t', T=    0.021420473764 / 
&RAMP ID='t', T=    0.021837002855 / 
&RAMP ID='t', T=    0.022253531947 / 
&RAMP ID='t', T=    0.022670061039 / 
&RAMP ID='t', T=    0.023086590131 / 
&RAMP ID='t', T=    0.023503119222 / 
&RAMP ID='t', T=    0.023919648314 / 
&RAMP ID='t', T=    0.024336177406 / 
&RAMP ID='t', T=    0.024752706498 / 
&RAMP ID='t', T=    0.025169235590 / 
&RAMP ID='t', T=    0.025585764681 / 
&RAMP ID='t', T=    0.026002293773 / 
&RAMP ID='t', T=    0.026418822865 / 
&RAMP ID='t', T=    0.026835351957 / 
&RAMP ID='t', T=    0.027251881048 / 
&RAMP ID='t', T=    0.027668410140 / 
&RAMP ID='t', T=    0.028084939232 / 
&RAMP ID='t', T=    0.028501468324 / 
&RAMP ID='t', T=    0.029126966116 / 
&RAMP ID='t', T=    0.029752463909 / 
&RAMP ID='t', T=    0.030377961701 / 
&RAMP ID='t', T=    0.031003459494 / 
&RAMP ID='t', T=    0.031628957287 / 
&RAMP ID='t', T=    0.032254455079 / 
&RAMP ID='t', T=    0.032879952872 / 
&RAMP ID='t', T=    0.033505450665 / 
&RAMP ID='t', T=    0.034130948457 / 
&RAMP ID='t', T=    0.034756446250 / 
&RAMP ID='t', T=    0.035381944042 / 
&RAMP ID='t', T=    0.036007441835 / 
&RAMP ID='t', T=    0.036632939628 / 
&RAMP ID='t', T=    0.037258437420 / 
&RAMP ID='t', T=    0.037883935213 / 
&RAMP ID='t', T=    0.038509433005 / 
&RAMP ID='t', T=    0.039134930798 / 
&RAMP ID='t', T=    0.039760428591 / 
&RAMP ID='t', T=    0.040385926383 / 
&RAMP ID='t', T=    0.041011424176 / 
&RAMP ID='t', T=    0.041636921969 / 
&RAMP ID='t', T=    0.042262419761 / 
&RAMP ID='t', T=    0.042887917554 / 
&RAMP ID='t', T=    0.043513415346 / 
&RAMP ID='t', T=    0.044138913139 / 
&RAMP ID='t', T=    0.044764410932 / 
&RAMP ID='t', T=    0.045389908724 / 
&RAMP ID='t', T=    0.046015406517 / 
&RAMP ID='t', T=    0.046640904309 / 
&RAMP ID='t', T=    0.047601626923 / 
&RAMP ID='t', T=    0.048562349537 / 
&RAMP ID='t', T=    0.049523072151 / 
&RAMP ID='t', T=    0.050483794765 / 
&RAMP ID='t', T=    0.051444517379 / 
&RAMP ID='t', T=    0.052405239993 / 
&RAMP ID='t', T=    0.053365962607 / 
&RAMP ID='t', T=    0.054326685221 / 
&RAMP ID='t', T=    0.055287407834 / 
&RAMP ID='t', T=    0.056248130448 / 
&RAMP ID='t', T=    0.057208853062 / 
&RAMP ID='t', T=    0.058169575676 / 
&RAMP ID='t', T=    0.059130298290 / 
&RAMP ID='t', T=    0.060091020904 / 
&RAMP ID='t', T=    0.061051743518 / 
&RAMP ID='t', T=    0.062012466132 / 
&RAMP ID='t', T=    0.062973188746 / 
&RAMP ID='t', T=    0.063933911360 / 
&RAMP ID='t', T=    0.064894633973 / 
&RAMP ID='t', T=    0.065855356587 / 
&RAMP ID='t', T=    0.066816079201 / 
&RAMP ID='t', T=    0.067776801815 / 
&RAMP ID='t', T=    0.068737524429 / 
&RAMP ID='t', T=    0.069698247043 / 
&RAMP ID='t', T=    0.070658969657 / 
&RAMP ID='t', T=    0.071619692271 / 
&RAMP ID='t', T=    0.072580414885 / 
&RAMP ID='t', T=    0.073541137498 / 
&RAMP ID='t', T=    0.074989819203 / 
&RAMP ID='t', T=    0.076438500908 / 
&RAMP ID='t', T=    0.077887182613 / 
&RAMP ID='t', T=    0.079335864318 / 
&RAMP ID='t', T=    0.080784546022 / 
&RAMP ID='t', T=    0.082233227727 / 
&RAMP ID='t', T=    0.083681909432 / 
&RAMP ID='t', T=    0.085130591137 / 
&RAMP ID='t', T=    0.086579272842 / 
&RAMP ID='t', T=    0.088027954546 / 
&RAMP ID='t', T=    0.089476636251 / 
&RAMP ID='t', T=    0.090925317956 / 
&RAMP ID='t', T=    0.093143695558 / 
&RAMP ID='t', T=    0.095362073159 / 
&RAMP ID='t', T=    0.097580450761 / 
&RAMP ID='t', T=    0.099798828362 / 
&RAMP ID='t', T=    0.102017205964 / 
&RAMP ID='t', T=    0.104235583565 / 
&RAMP ID='t', T=    0.106453961167 / 
&RAMP ID='t', T=    0.108672338769 / 
&RAMP ID='t', T=    0.110890716370 / 
&RAMP ID='t', T=    0.114328458810 / 
&RAMP ID='t', T=    0.117766201249 / 
&RAMP ID='t', T=    0.121203943689 / 
&RAMP ID='t', T=    0.124641686129 / 
&RAMP ID='t', T=    0.128079428568 / 
&RAMP ID='t', T=    0.131517171008 / 
&RAMP ID='t', T=    0.134954913448 / 
&RAMP ID='t', T=    0.138392655888 / 
&RAMP ID='t', T=    0.141830398327 / 
&RAMP ID='t', T=    0.145268140767 / 
&RAMP ID='t', T=    0.150956928229 / 
&RAMP ID='t', T=    0.156645715690 / 
&RAMP ID='t', T=    0.162334503152 / 
&RAMP ID='t', T=    0.168023290614 / 
&RAMP ID='t', T=    0.173712078075 / 
&RAMP ID='t', T=    0.179400865537 / 
&RAMP ID='t', T=    0.185089652999 / 
&RAMP ID='t', T=    0.190778440460 / 
&RAMP ID='t', T=    0.196467227922 / 
&RAMP ID='t', T=    0.202156015383 / 
&RAMP ID='t', T=    0.207844802845 / 
&RAMP ID='t', T=    0.213533590307 / 
&RAMP ID='t', T=    0.219222377768 / 
&RAMP ID='t', T=    0.224911165230 / 
&RAMP ID='t', T=    0.230599952692 / 
&RAMP ID='t', T=    0.236288740153 / 
&RAMP ID='t', T=    0.241977527615 / 
&RAMP ID='t', T=    0.247666315077 / 
&RAMP ID='t', T=    0.253355102538 / 
&RAMP ID='t', T=    0.259043890000 / 
&RAMP ID='t', T=    0.264732677462 / 
&RAMP ID='t', T=    0.270421464923 / 
&RAMP ID='t', T=    0.276110252385 / 
&RAMP ID='t', T=    0.281799039847 / 
&RAMP ID='t', T=    0.287487827308 / 
&RAMP ID='t', T=    0.293176614770 / 
&RAMP ID='t', T=    0.298865402232 / 
&RAMP ID='t', T=    0.303060437847 / 
&RAMP ID='t', T=    0.307255473463 / 
&RAMP ID='t', T=    0.311450509079 / 
&RAMP ID='t', T=    0.315645544694 / 
&RAMP ID='t', T=    0.319840580310 / 
&RAMP ID='t', T=    0.324035615925 / 
&RAMP ID='t', T=    0.328230651541 / 
&RAMP ID='t', T=    0.332425687157 / 
&RAMP ID='t', T=    0.336620722772 / 
&RAMP ID='t', T=    0.340815758388 / 
&RAMP ID='t', T=    0.345010794004 / 
&RAMP ID='t', T=    0.349205829619 / 
&RAMP ID='t', T=    0.353400865235 / 
&RAMP ID='t', T=    0.357595900851 / 
&RAMP ID='t', T=    0.361790936466 / 
&RAMP ID='t', T=    0.365985972082 / 
&RAMP ID='t', T=    0.370181007697 / 
&RAMP ID='t', T=    0.374376043313 / 
&RAMP ID='t', T=    0.378571078929 / 
&RAMP ID='t', T=    0.382766114544 / 
&RAMP ID='t', T=    0.385648072868 / 
&RAMP ID='t', T=    0.387725277747 / 
&RAMP ID='t', T=    0.389802482627 / 
&RAMP ID='t', T=    0.391879687507 / 
&RAMP ID='t', T=    0.393956892386 / 
&RAMP ID='t', T=    0.396034097266 / 
&RAMP ID='t', T=    0.398111302145 / 
&RAMP ID='t', T=    0.400188507025 / 
&RAMP ID='t', T=    0.402265711904 / 
&RAMP ID='t', T=    0.404342916784 / 
&RAMP ID='t', T=    0.406420121663 / 
&RAMP ID='t', T=    0.408497326543 / 
&RAMP ID='t', T=    0.410574531423 / 
&RAMP ID='t', T=    0.412651736302 / 
&RAMP ID='t', T=    0.414728941182 / 
&RAMP ID='t', T=    0.416806146061 / 
&RAMP ID='t', T=    0.420014232094 / 
&RAMP ID='t', T=    0.423222318127 / 
&RAMP ID='t', T=    0.426430404160 / 
&RAMP ID='t', T=    0.429638490193 / 
&RAMP ID='t', T=    0.432846576226 / 
&RAMP ID='t', T=    0.436054662259 / 
&RAMP ID='t', T=    0.441149154091 / 
&RAMP ID='t', T=    0.446243645922 / 
&RAMP ID='t', T=    0.451338137754 / 
&RAMP ID='t', T=    0.456432629585 / 
&RAMP ID='t', T=    0.461527121417 / 
&RAMP ID='t', T=    0.466621613248 / 
&RAMP ID='t', T=    0.471716105080 / 
&RAMP ID='t', T=    0.476810596911 / 
&RAMP ID='t', T=    0.481905088743 / 
&RAMP ID='t', T=    0.486999580575 / 
&RAMP ID='t', T=    0.492094072406 / 
&RAMP ID='t', T=    0.497188564238 / 
&RAMP ID='t', T=    0.500756800380 / 
&RAMP ID='t', T=    0.503389625869 / 
&RAMP ID='t', T=    0.506022451359 / 
&RAMP ID='t', T=    0.508655276848 / 
&RAMP ID='t', T=    0.511288102337 / 
&RAMP ID='t', T=    0.513920927826 / 
&RAMP ID='t', T=    0.516553753316 / 
&RAMP ID='t', T=    0.519186578805 / 
&RAMP ID='t', T=    0.521038293251 / 
&RAMP ID='t', T=    0.522890007698 / 
&RAMP ID='t', T=    0.524741722144 / 
&RAMP ID='t', T=    0.526593436591 / 
&RAMP ID='t', T=    0.527931881402 / 
&RAMP ID='t', T=    0.529270326214 / 
&RAMP ID='t', T=    0.530608771026 / 
&RAMP ID='t', T=    0.531947215838 / 
&RAMP ID='t', T=    0.532889847242 / 
&RAMP ID='t', T=    0.533832478646 / 
&RAMP ID='t', T=    0.534775110050 / 
&RAMP ID='t', T=    0.535717741454 / 
&RAMP ID='t', T=    0.536395443244 / 
&RAMP ID='t', T=    0.537073145034 / 
&RAMP ID='t', T=    0.537750846824 / 
&RAMP ID='t', T=    0.538428548613 / 
&RAMP ID='t', T=    0.539106250403 / 
&RAMP ID='t', T=    0.539783952193 / 
&RAMP ID='t', T=    0.540461653983 / 
&RAMP ID='t', T=    0.541139355773 / 
&RAMP ID='t', T=    0.541817057563 / 
&RAMP ID='t', T=    0.542494759352 / 
&RAMP ID='t', T=    0.543172461142 / 
&RAMP ID='t', T=    0.544296631651 / 
&RAMP ID='t', T=    0.545420802160 / 
&RAMP ID='t', T=    0.546544972669 / 
&RAMP ID='t', T=    0.547669143178 / 
&RAMP ID='t', T=    0.549383909464 / 
&RAMP ID='t', T=    0.551098675751 / 
&RAMP ID='t', T=    0.552813442037 / 
&RAMP ID='t', T=    0.554528208324 / 
&RAMP ID='t', T=    0.556242974610 / 
&RAMP ID='t', T=    0.558877224612 / 
&RAMP ID='t', T=    0.561511474614 / 
&RAMP ID='t', T=    0.564145724617 / 
&RAMP ID='t', T=    0.566779974619 / 
&RAMP ID='t', T=    0.569414224621 / 
&RAMP ID='t', T=    0.573485820022 / 
&RAMP ID='t', T=    0.577557415424 / 
&RAMP ID='t', T=    0.581629010826 / 
&RAMP ID='t', T=    0.585700606227 / 
&RAMP ID='t', T=    0.589772201629 / 
&RAMP ID='t', T=    0.593843797031 / 
&RAMP ID='t', T=    0.597915392432 / 
&RAMP ID='t', T=    0.601986987834 / 
&RAMP ID='t', T=    0.606058583236 / 
&RAMP ID='t', T=    0.610130178637 / 
&RAMP ID='t', T=    0.613126874218 / 
&RAMP ID='t', T=    0.616123569798 / 
&RAMP ID='t', T=    0.619120265379 / 
&RAMP ID='t', T=    0.622116960959 / 
&RAMP ID='t', T=    0.625113656540 / 
&RAMP ID='t', T=    0.628110352120 / 
&RAMP ID='t', T=    0.631107047701 / 
&RAMP ID='t', T=    0.634103743281 / 
&RAMP ID='t', T=    0.637100438862 / 
&RAMP ID='t', T=    0.640097134442 / 
&RAMP ID='t', T=    0.643093830023 / 
&RAMP ID='t', T=    0.646090525603 / 
&RAMP ID='t', T=    0.649087221184 / 
&RAMP ID='t', T=    0.652083916764 / 
&RAMP ID='t', T=    0.654148395831 / 
&RAMP ID='t', T=    0.656212874899 / 
&RAMP ID='t', T=    0.658277353966 / 
&RAMP ID='t', T=    0.660341833034 / 
&RAMP ID='t', T=    0.662406312101 / 
&RAMP ID='t', T=    0.664470791168 / 
&RAMP ID='t', T=    0.666535270236 / 
&RAMP ID='t', T=    0.668599749303 / 
&RAMP ID='t', T=    0.670664228370 / 
&RAMP ID='t', T=    0.672728707438 / 
&RAMP ID='t', T=    0.674793186505 / 
&RAMP ID='t', T=    0.676857665572 / 
&RAMP ID='t', T=    0.678922144640 / 
&RAMP ID='t', T=    0.680986623707 / 
&RAMP ID='t', T=    0.683051102774 / 
&RAMP ID='t', T=    0.685115581842 / 
&RAMP ID='t', T=    0.687180060909 / 
&RAMP ID='t', T=    0.689244539976 / 
&RAMP ID='t', T=    0.690643052632 / 
&RAMP ID='t', T=    0.691609503825 / 
&RAMP ID='t', T=    0.692575955018 / 
&RAMP ID='t', T=    0.693542406211 / 
&RAMP ID='t', T=    0.694508857404 / 
&RAMP ID='t', T=    0.695475308597 / 
&RAMP ID='t', T=    0.696441759789 / 
&RAMP ID='t', T=    0.697408210982 / 
&RAMP ID='t', T=    0.698374662175 / 
&RAMP ID='t', T=    0.699341113368 / 
&RAMP ID='t', T=    0.700307564561 / 
&RAMP ID='t', T=    0.701274015754 / 
&RAMP ID='t', T=    0.702240466947 / 
&RAMP ID='t', T=    0.703206918140 / 
&RAMP ID='t', T=    0.704173369333 / 
&RAMP ID='t', T=    0.705139820526 / 
&RAMP ID='t', T=    0.706106271719 / 
&RAMP ID='t', T=    0.707072722912 / 
&RAMP ID='t', T=    0.708668836927 / 
&RAMP ID='t', T=    0.710264950942 / 
&RAMP ID='t', T=    0.711861064958 / 
&RAMP ID='t', T=    0.713457178973 / 
&RAMP ID='t', T=    0.715053292988 / 
&RAMP ID='t', T=    0.716649407003 / 
&RAMP ID='t', T=    0.718245521019 / 
&RAMP ID='t', T=    0.719841635034 / 
&RAMP ID='t', T=    0.721437749049 / 
&RAMP ID='t', T=    0.723033863065 / 
&RAMP ID='t', T=    0.724629977080 / 
&RAMP ID='t', T=    0.726226091095 / 
&RAMP ID='t', T=    0.727822205111 / 
&RAMP ID='t', T=    0.729418319126 / 
&RAMP ID='t', T=    0.731014433141 / 
&RAMP ID='t', T=    0.732116550207 / 
&RAMP ID='t', T=    0.732917367821 / 
&RAMP ID='t', T=    0.733718185434 / 
&RAMP ID='t', T=    0.734519003048 / 
&RAMP ID='t', T=    0.735319820662 / 
&RAMP ID='t', T=    0.736120638275 / 
&RAMP ID='t', T=    0.736921455889 / 
&RAMP ID='t', T=    0.737722273503 / 
&RAMP ID='t', T=    0.738523091117 / 
&RAMP ID='t', T=    0.739323908730 / 
&RAMP ID='t', T=    0.739876144471 / 
&RAMP ID='t', T=    0.740428380212 / 
&RAMP ID='t', T=    0.740980615953 / 
&RAMP ID='t', T=    0.741532851694 / 
&RAMP ID='t', T=    0.741939303413 / 
&RAMP ID='t', T=    0.742345755133 / 
&RAMP ID='t', T=    0.742752206852 / 
&RAMP ID='t', T=    0.743158658572 / 
&RAMP ID='t', T=    0.743435060248 / 
&RAMP ID='t', T=    0.743711461924 / 
&RAMP ID='t', T=    0.743987863600 / 
&RAMP ID='t', T=    0.744264265276 / 
&RAMP ID='t', T=    0.744540666952 / 
&RAMP ID='t', T=    0.744817068628 / 
&RAMP ID='t', T=    0.745093470304 / 
&RAMP ID='t', T=    0.745369871980 / 
&RAMP ID='t', T=    0.745646273656 / 
&RAMP ID='t', T=    0.745922675333 / 
&RAMP ID='t', T=    0.746199077009 / 
&RAMP ID='t', T=    0.746691902064 / 
&RAMP ID='t', T=    0.747184727119 / 
&RAMP ID='t', T=    0.747677552174 / 
&RAMP ID='t', T=    0.748170377229 / 
&RAMP ID='t', T=    0.748663202284 / 
&RAMP ID='t', T=    0.749156027339 / 
&RAMP ID='t', T=    0.749648852394 / 
&RAMP ID='t', T=    0.750141677450 / 
&RAMP ID='t', T=    0.750634502505 / 
&RAMP ID='t', T=    0.751456549680 / 
&RAMP ID='t', T=    0.752278596855 / 
&RAMP ID='t', T=    0.753100644031 / 
&RAMP ID='t', T=    0.753922691206 / 
&RAMP ID='t', T=    0.754744738381 / 
&RAMP ID='t', T=    0.755566785556 / 
&RAMP ID='t', T=    0.756388832732 / 
&RAMP ID='t', T=    0.757210879907 / 
&RAMP ID='t', T=    0.758032927082 / 
&RAMP ID='t', T=    0.758854974258 / 
&RAMP ID='t', T=    0.759677021433 / 
&RAMP ID='t', T=    0.760499068608 / 
&RAMP ID='t', T=    0.761321115784 / 
&RAMP ID='t', T=    0.762143162959 / 
&RAMP ID='t', T=    0.762965210134 / 
&RAMP ID='t', T=    0.763787257309 / 
&RAMP ID='t', T=    0.764609304485 / 
&RAMP ID='t', T=    0.765431351660 / 
&RAMP ID='t', T=    0.766253398835 / 
&RAMP ID='t', T=    0.767075446011 / 
&RAMP ID='t', T=    0.767897493186 / 
&RAMP ID='t', T=    0.768719540361 / 
&RAMP ID='t', T=    0.769541587536 / 
&RAMP ID='t', T=    0.770363634712 / 
&RAMP ID='t', T=    0.771185681887 / 
&RAMP ID='t', T=    0.772007729062 / 
&RAMP ID='t', T=    0.772614633774 / 
&RAMP ID='t', T=    0.773221538485 / 
&RAMP ID='t', T=    0.773828443197 / 
&RAMP ID='t', T=    0.774435347908 / 
&RAMP ID='t', T=    0.775042252620 / 
&RAMP ID='t', T=    0.775485140150 / 
&RAMP ID='t', T=    0.775928027680 / 
&RAMP ID='t', T=    0.776370915210 / 
&RAMP ID='t', T=    0.776813802740 / 
&RAMP ID='t', T=    0.777256690270 / 
&RAMP ID='t', T=    0.777699577800 / 
&RAMP ID='t', T=    0.778142465330 / 
&RAMP ID='t', T=    0.778585352860 / 
&RAMP ID='t', T=    0.779028240390 / 
&RAMP ID='t', T=    0.779471127920 / 
&RAMP ID='t', T=    0.779914015450 / 
&RAMP ID='t', T=    0.780356902980 / 
&RAMP ID='t', T=    0.780799790510 / 
&RAMP ID='t', T=    0.781242678040 / 
&RAMP ID='t', T=    0.781685565570 / 
&RAMP ID='t', T=    0.782128453100 / 
&RAMP ID='t', T=    0.782571340630 / 
&RAMP ID='t', T=    0.783014228160 / 
&RAMP ID='t', T=    0.783457115690 / 
&RAMP ID='t', T=    0.783900003220 / 
&RAMP ID='t', T=    0.784342890750 / 
&RAMP ID='t', T=    0.784785778280 / 
&RAMP ID='t', T=    0.785228665810 / 
&RAMP ID='t', T=    0.785671553340 / 
&RAMP ID='t', T=    0.786114440870 / 
&RAMP ID='t', T=    0.786557328400 / 
&RAMP ID='t', T=    0.787000215930 / 
&RAMP ID='t', T=    0.787443103460 / 
&RAMP ID='t', T=    0.787885990990 / 
&RAMP ID='t', T=    0.788328878520 / 
&RAMP ID='t', T=    0.788771766051 / 
&RAMP ID='t', T=    0.789214653581 / 
&RAMP ID='t', T=    0.789657541111 / 
&RAMP ID='t', T=    0.790100428641 / 
&RAMP ID='t', T=    0.790543316171 / 
&RAMP ID='t', T=    0.790986203701 / 
&RAMP ID='t', T=    0.791429091231 / 
&RAMP ID='t', T=    0.791871978761 / 
&RAMP ID='t', T=    0.792314866291 / 
&RAMP ID='t', T=    0.792757753821 / 
&RAMP ID='t', T=    0.793200641351 / 
&RAMP ID='t', T=    0.793643528881 / 
&RAMP ID='t', T=    0.794086416411 / 
&RAMP ID='t', T=    0.794529303941 / 
&RAMP ID='t', T=    0.794972191471 / 
&RAMP ID='t', T=    0.795415079001 / 
&RAMP ID='t', T=    0.795857966531 / 
&RAMP ID='t', T=    0.796300854061 / 
&RAMP ID='t', T=    0.796743741591 / 
&RAMP ID='t', T=    0.797186629121 / 
&RAMP ID='t', T=    0.797629516651 / 
&RAMP ID='t', T=    0.798072404181 / 
&RAMP ID='t', T=    0.798515291711 / 
&RAMP ID='t', T=    0.798958179241 / 
&RAMP ID='t', T=    0.799401066771 / 
&RAMP ID='t', T=    0.799843954301 / 
&RAMP ID='t', T=    0.800286841831 / 
&RAMP ID='t', T=    0.800601183210 / 
&RAMP ID='t', T=    0.800915524588 / 
&RAMP ID='t', T=    0.801229865966 / 
&RAMP ID='t', T=    0.801544207345 / 
&RAMP ID='t', T=    0.801858548723 / 
&RAMP ID='t', T=    0.802172890102 / 
&RAMP ID='t', T=    0.802487231480 / 
&RAMP ID='t', T=    0.802801572859 / 
&RAMP ID='t', T=    0.803115914237 / 
&RAMP ID='t', T=    0.803430255616 / 
&RAMP ID='t', T=    0.803744596994 / 
&RAMP ID='t', T=    0.804058938373 / 
&RAMP ID='t', T=    0.804373279751 / 
&RAMP ID='t', T=    0.804687621130 / 
&RAMP ID='t', T=    0.805001962508 / 
&RAMP ID='t', T=    0.805316303887 / 
&RAMP ID='t', T=    0.805630645265 / 
&RAMP ID='t', T=    0.805944986644 / 
&RAMP ID='t', T=    0.806259328022 / 
&RAMP ID='t', T=    0.806573669401 / 
&RAMP ID='t', T=    0.806888010779 / 
&RAMP ID='t', T=    0.807202352158 / 
&RAMP ID='t', T=    0.807516693536 / 
&RAMP ID='t', T=    0.807831034914 / 
&RAMP ID='t', T=    0.808145376293 / 
&RAMP ID='t', T=    0.808459717671 / 
&RAMP ID='t', T=    0.808774059050 / 
&RAMP ID='t', T=    0.809088400428 / 
&RAMP ID='t', T=    0.809402741807 / 
&RAMP ID='t', T=    0.809717083185 / 
&RAMP ID='t', T=    0.809949522049 / 
&RAMP ID='t', T=    0.810181960913 / 
&RAMP ID='t', T=    0.810414399777 / 
&RAMP ID='t', T=    0.810646838640 / 
&RAMP ID='t', T=    0.810813133728 / 
&RAMP ID='t', T=    0.810928468598 / 
&RAMP ID='t', T=    0.811010217305 / 
&RAMP ID='t', T=    0.811091966012 / 
&RAMP ID='t', T=    0.811173714720 / 
&RAMP ID='t', T=    0.811255463427 / 
&RAMP ID='t', T=    0.811337212134 / 
&RAMP ID='t', T=    0.811418960841 / 
&RAMP ID='t', T=    0.811500709548 / 
&RAMP ID='t', T=    0.811582458255 / 
&RAMP ID='t', T=    0.811664206962 / 
&RAMP ID='t', T=    0.811745955669 / 
&RAMP ID='t', T=    0.811805658517 / 
&RAMP ID='t', T=    0.811865361365 / 
&RAMP ID='t', T=    0.811925064213 / 
&RAMP ID='t', T=    0.811984767061 / 
&RAMP ID='t', T=    0.812027375284 / 
&RAMP ID='t', T=    0.812057748823 / 
&RAMP ID='t', T=    0.812080132777 / 
&RAMP ID='t', T=    0.812102516731 / 
&RAMP ID='t', T=    0.812124900685 / 
&RAMP ID='t', T=    0.812147284639 / 
&RAMP ID='t', T=    0.812169668593 / 
&RAMP ID='t', T=    0.812192052546 / 
&RAMP ID='t', T=    0.812214436500 / 
&RAMP ID='t', T=    0.812236820454 / 
&RAMP ID='t', T=    0.812259204408 / 
&RAMP ID='t', T=    0.812295226589 / 
&RAMP ID='t', T=    0.812331248770 / 
&RAMP ID='t', T=    0.812367270950 / 
&RAMP ID='t', T=    0.812403293131 / 
&RAMP ID='t', T=    0.812489466314 / 
&RAMP ID='t', T=    0.812635995654 / 
&RAMP ID='t', T=    0.812782524993 / 
&RAMP ID='t', T=    0.812929054333 / 
&RAMP ID='t', T=    0.813075583673 / 
&RAMP ID='t', T=    0.813222113013 / 
&RAMP ID='t', T=    0.813368642352 / 
&RAMP ID='t', T=    0.813515171692 / 
&RAMP ID='t', T=    0.813661701032 / 
&RAMP ID='t', T=    0.813808230372 / 
&RAMP ID='t', T=    0.813954759711 / 
&RAMP ID='t', T=    0.814101289051 / 
&RAMP ID='t', T=    0.814247818391 / 
&RAMP ID='t', T=    0.814350063505 / 
&RAMP ID='t', T=    0.814452308620 / 
&RAMP ID='t', T=    0.814554553735 / 
&RAMP ID='t', T=    0.814656798849 / 
&RAMP ID='t', T=    0.814759043964 / 
&RAMP ID='t', T=    0.814861289079 / 
&RAMP ID='t', T=    0.814963534193 / 
&RAMP ID='t', T=    0.815065779308 / 
&RAMP ID='t', T=    0.815168024423 / 
&RAMP ID='t', T=    0.815270269537 / 
&RAMP ID='t', T=    0.815372514652 / 
&RAMP ID='t', T=    0.815474759767 / 
&RAMP ID='t', T=    0.815577004881 / 
&RAMP ID='t', T=    0.815679249996 / 
&RAMP ID='t', T=    0.815781495110 / 
&RAMP ID='t', T=    0.815883740225 / 
&RAMP ID='t', T=    0.815985985340 / 
&RAMP ID='t', T=    0.816088230454 / 
&RAMP ID='t', T=    0.816190475569 / 
&RAMP ID='t', T=    0.816292720684 / 
&RAMP ID='t', T=    0.816394965798 / 
&RAMP ID='t', T=    0.816497210913 / 
&RAMP ID='t', T=    0.816599456028 / 
&RAMP ID='t', T=    0.816701701142 / 
&RAMP ID='t', T=    0.816803946257 / 
&RAMP ID='t', T=    0.816906191372 / 
&RAMP ID='t', T=    0.817008436486 / 
&RAMP ID='t', T=    0.817079046262 / 
&RAMP ID='t', T=    0.817149656037 / 
&RAMP ID='t', T=    0.817220265813 / 
&RAMP ID='t', T=    0.817290875588 / 
&RAMP ID='t', T=    0.817361485364 / 
&RAMP ID='t', T=    0.817432095139 / 
&RAMP ID='t', T=    0.817502704915 / 
&RAMP ID='t', T=    0.817573314690 / 
&RAMP ID='t', T=    0.817643924466 / 
&RAMP ID='t', T=    0.817714534241 / 
&RAMP ID='t', T=    0.817785144017 / 
&RAMP ID='t', T=    0.817892299871 / 
&RAMP ID='t', T=    0.817999455726 / 
&RAMP ID='t', T=    0.818106611581 / 
&RAMP ID='t', T=    0.818213767436 / 
&RAMP ID='t', T=    0.818320923290 / 
&RAMP ID='t', T=    0.818428079145 / 
&RAMP ID='t', T=    0.818535235000 / 
&RAMP ID='t', T=    0.818642390854 / 
&RAMP ID='t', T=    0.818749546709 / 
&RAMP ID='t', T=    0.818856702564 / 
&RAMP ID='t', T=    0.818963858419 / 
&RAMP ID='t', T=    0.819071014273 / 
&RAMP ID='t', T=    0.819178170128 / 
&RAMP ID='t', T=    0.819285325983 / 
&RAMP ID='t', T=    0.819364332995 / 
&RAMP ID='t', T=    0.819421809819 / 
&RAMP ID='t', T=    0.819479286644 / 
&RAMP ID='t', T=    0.819536763469 / 
&RAMP ID='t', T=    0.819594240293 / 
&RAMP ID='t', T=    0.819651717118 / 
&RAMP ID='t', T=    0.819690007548 / 
&RAMP ID='t', T=    0.819715259784 / 
&RAMP ID='t', T=    0.819732582676 / 
&RAMP ID='t', T=    0.819745179412 / 
&RAMP ID='t', T=    0.819757776148 / 
&RAMP ID='t', T=    0.819770372885 / 
&RAMP ID='t', T=    0.819782969621 / 
&RAMP ID='t', T=    0.819795566357 / 
&RAMP ID='t', T=    0.819808163094 / 
&RAMP ID='t', T=    0.819820759830 / 
&RAMP ID='t', T=    0.819833356566 / 
&RAMP ID='t', T=    0.819845953303 / 
&RAMP ID='t', T=    0.819855270593 / 
&RAMP ID='t', T=    0.819862056512 / 
&RAMP ID='t', T=    0.819868842430 / 
&RAMP ID='t', T=    0.819875628348 / 
&RAMP ID='t', T=    0.819882414267 / 
&RAMP ID='t', T=    0.819889200185 / 
&RAMP ID='t', T=    0.819895986104 / 
&RAMP ID='t', T=    0.819902772022 / 
&RAMP ID='t', T=    0.819909557940 / 
&RAMP ID='t', T=    0.819914572001 / 
&RAMP ID='t', T=    0.819919586061 / 
&RAMP ID='t', T=    0.819924600122 / 
&RAMP ID='t', T=    0.819929614182 / 
&RAMP ID='t', T=    0.819934628242 / 
&RAMP ID='t', T=    0.819939642303 / 
&RAMP ID='t', T=    0.819944656363 / 
&RAMP ID='t', T=    0.819949670424 / 
&RAMP ID='t', T=    0.819954684484 / 
&RAMP ID='t', T=    0.819959698544 / 
&RAMP ID='t', T=    0.819964712605 / 
&RAMP ID='t', T=    0.819969726665 / 
&RAMP ID='t', T=    0.819974740726 / 
&RAMP ID='t', T=    0.819979754786 / 
&RAMP ID='t', T=    0.819984768846 / 
&RAMP ID='t', T=    0.819992942251 / 
&RAMP ID='t', T=    0.820001115656 / 
&RAMP ID='t', T=    0.820009289060 / 
&RAMP ID='t', T=    0.820017462465 / 
&RAMP ID='t', T=    0.820038408646 / 
&RAMP ID='t', T=    0.820059354828 / 
&RAMP ID='t', T=    0.820080301009 / 
&RAMP ID='t', T=    0.820112177855 / 
&RAMP ID='t', T=    0.820144054700 / 
&RAMP ID='t', T=    0.820175931545 / 
&RAMP ID='t', T=    0.820207808391 / 
&RAMP ID='t', T=    0.820257262304 / 
&RAMP ID='t', T=    0.820337194694 / 
&RAMP ID='t', T=    0.820417127085 / 
&RAMP ID='t', T=    0.820497059476 / 
&RAMP ID='t', T=    0.820576991866 / 
&RAMP ID='t', T=    0.820656924257 / 
&RAMP ID='t', T=    0.820736856648 / 
&RAMP ID='t', T=    0.820816789038 / 
&RAMP ID='t', T=    0.820896721429 / 
&RAMP ID='t', T=    0.820976653820 / 
&RAMP ID='t', T=    0.821056586211 / 
&RAMP ID='t', T=    0.821136518601 / 
&RAMP ID='t', T=    0.821216450992 / 
&RAMP ID='t', T=    0.821275429273 / 
&RAMP ID='t', T=    0.821318494323 / 
&RAMP ID='t', T=    0.821361559373 / 
&RAMP ID='t', T=    0.821404624422 / 
&RAMP ID='t', T=    0.821447689472 / 
&RAMP ID='t', T=    0.821490754521 / 
&RAMP ID='t', T=    0.821533819571 / 
&RAMP ID='t', T=    0.821576884621 / 
&RAMP ID='t', T=    0.821606806785 / 
&RAMP ID='t', T=    0.821627054320 / 
&RAMP ID='t', T=    0.821641238678 / 
&RAMP ID='t', T=    0.821655423037 / 
&RAMP ID='t', T=    0.821669607395 / 
&RAMP ID='t', T=    0.821683791754 / 
&RAMP ID='t', T=    0.821697976112 / 
&RAMP ID='t', T=    0.821712160471 / 
&RAMP ID='t', T=    0.821722293183 / 
&RAMP ID='t', T=    0.821729464872 / 
&RAMP ID='t', T=    0.821734784858 / 
&RAMP ID='t', T=    0.821740104845 / 
&RAMP ID='t', T=    0.821745424832 / 
&RAMP ID='t', T=    0.821750744819 / 
&RAMP ID='t', T=    0.821756064805 / 
&RAMP ID='t', T=    0.821761384792 / 
&RAMP ID='t', T=    0.821766704779 / 
&RAMP ID='t', T=    0.821772024766 / 
&RAMP ID='t', T=    0.821777344752 / 
&RAMP ID='t', T=    0.821782664739 / 
&RAMP ID='t', T=    0.821787984726 / 
&RAMP ID='t', T=    0.821796292040 / 
&RAMP ID='t', T=    0.821804599354 / 
&RAMP ID='t', T=    0.821812906669 / 
&RAMP ID='t', T=    0.821821213983 / 
&RAMP ID='t', T=    0.821838962037 / 
&RAMP ID='t', T=    0.821865950584 / 
&RAMP ID='t', T=    0.821892939132 / 
&RAMP ID='t', T=    0.821919927680 / 
&RAMP ID='t', T=    0.821946916227 / 
&RAMP ID='t', T=    0.821973904775 / 
&RAMP ID='t', T=    0.822000893323 / 
&RAMP ID='t', T=    0.822027881870 / 
&RAMP ID='t', T=    0.822054870418 / 
&RAMP ID='t', T=    0.822096106172 / 
&RAMP ID='t', T=    0.822137341927 / 
&RAMP ID='t', T=    0.822178577681 / 
&RAMP ID='t', T=    0.822219813436 / 
&RAMP ID='t', T=    0.822261049190 / 
&RAMP ID='t', T=    0.822302284944 / 
&RAMP ID='t', T=    0.822343520699 / 
&RAMP ID='t', T=    0.822384756453 / 
&RAMP ID='t', T=    0.822425992208 / 
&RAMP ID='t', T=    0.822467227962 / 
&RAMP ID='t', T=    0.822508463716 / 
&RAMP ID='t', T=    0.822549699471 / 
&RAMP ID='t', T=    0.822579480871 / 
&RAMP ID='t', T=    0.822600475599 / 
&RAMP ID='t', T=    0.822615702151 / 
&RAMP ID='t', T=    0.822630928702 / 
&RAMP ID='t', T=    0.822646155254 / 
&RAMP ID='t', T=    0.822661381806 / 
&RAMP ID='t', T=    0.822676608358 / 