&HEAD CHID='ign_delay_Methane_grimech30_T1000K_Phi1p4', TITLE='ign_delay Methane_grimech30 T=1000K Phi=1.4' /

&MISC GVEC(3)=0.0, NOISE=F, STRATIFICATION=F, SIMULATION_MODE='DNS' /

&RADI RADIATION=F/
&SURF ID='DEF',DEFAULT=T,ADIABATIC=T/

&COMB ODE_SOLVER='CVODE',ODE_MIN_ATOL=1E-15,ODE_REL_ERROR=1E-9,ZZ_MIN_GLOBAL=1E-15 /
&TIME T_END=10, RAMP_TIME='t' /
&DUMP FLUSH_FILE_BUFFERS=T, DT_DEVC=1e-20/

&CATF OTHER_FILES='../../Utilities/Input_Libraries/Chemical_Mechanisms/FDS/Methane_grimech30.fds' /

&MESH IJK=5,1,5, XB=0.0,1.0,0.0,0.2,0.0,1.0 /
&OBST XB=0.0,1.0,0.0,0.2,0.0,1.0/
&HOLE XB=0.4,0.6,-1.0,1.0,0.4,0.6/
&INIT XB=0.4,0.6,-1.0,1.0,0.4,0.6, MASS_FRACTION(1)=0.21538665, SPEC_ID(1)='O2',MASS_FRACTION(2)=0.07559265,SPEC_ID(2)='CH4',  TEMPERATURE=726.85 /
&DEVC XYZ=0.5,0.0,0.5, QUANTITY='MASS FRACTION', SPEC_ID='OH',  ID='OH' /
&DEVC XYZ=0.5,0.0,0.5, QUANTITY='TEMPERATURE', ID='TMP'/

&RAMP ID='t', T=    0.000000000005 / 
&RAMP ID='t', T=    0.000000047782 / 
&RAMP ID='t', T=    0.000000525558 / 
&RAMP ID='t', T=    0.000001292314 / 
&RAMP ID='t', T=    0.000002059070 / 
&RAMP ID='t', T=    0.000002825826 / 
&RAMP ID='t', T=    0.000004191041 / 
&RAMP ID='t', T=    0.000005556255 / 
&RAMP ID='t', T=    0.000006921469 / 
&RAMP ID='t', T=    0.000009775614 / 
&RAMP ID='t', T=    0.000016127641 / 
&RAMP ID='t', T=    0.000027416421 / 
&RAMP ID='t', T=    0.000038705201 / 
&RAMP ID='t', T=    0.000049993982 / 
&RAMP ID='t', T=    0.000061282762 / 
&RAMP ID='t', T=    0.000080158434 / 
&RAMP ID='t', T=    0.000099034106 / 
&RAMP ID='t', T=    0.000134979116 / 
&RAMP ID='t', T=    0.000170924126 / 
&RAMP ID='t', T=    0.000206869136 / 
&RAMP ID='t', T=    0.000242814146 / 
&RAMP ID='t', T=    0.000300514251 / 
&RAMP ID='t', T=    0.000399063853 / 
&RAMP ID='t', T=    0.000555524926 / 
&RAMP ID='t', T=    0.000711985998 / 
&RAMP ID='t', T=    0.000868447071 / 
&RAMP ID='t', T=    0.001024908144 / 
&RAMP ID='t', T=    0.001181369216 / 
&RAMP ID='t', T=    0.001337830289 / 
&RAMP ID='t', T=    0.001494291362 / 
&RAMP ID='t', T=    0.001650752434 / 
&RAMP ID='t', T=    0.001807213507 / 
&RAMP ID='t', T=    0.002157785902 / 
&RAMP ID='t', T=    0.002508358298 / 
&RAMP ID='t', T=    0.002757531029 / 
&RAMP ID='t', T=    0.003006703759 / 
&RAMP ID='t', T=    0.003391787744 / 
&RAMP ID='t', T=    0.003674275984 / 
&RAMP ID='t', T=    0.003956764224 / 
&RAMP ID='t', T=    0.004239252464 / 
&RAMP ID='t', T=    0.004521740704 / 
&RAMP ID='t', T=    0.004804228944 / 
&RAMP ID='t', T=    0.005086717184 / 
&RAMP ID='t', T=    0.005369205424 / 
&RAMP ID='t', T=    0.005651693664 / 
&RAMP ID='t', T=    0.005934181904 / 
&RAMP ID='t', T=    0.006216670144 / 
&RAMP ID='t', T=    0.006499158384 / 
&RAMP ID='t', T=    0.006781646624 / 
&RAMP ID='t', T=    0.007064134864 / 
&RAMP ID='t', T=    0.007346623104 / 
&RAMP ID='t', T=    0.007629111344 / 
&RAMP ID='t', T=    0.007911599584 / 
&RAMP ID='t', T=    0.008194087824 / 
&RAMP ID='t', T=    0.008476576064 / 
&RAMP ID='t', T=    0.008759064303 / 
&RAMP ID='t', T=    0.009041552543 / 
&RAMP ID='t', T=    0.009324040783 / 
&RAMP ID='t', T=    0.009606529023 / 
&RAMP ID='t', T=    0.009889017263 / 
&RAMP ID='t', T=    0.010171505503 / 
&RAMP ID='t', T=    0.010453993743 / 
&RAMP ID='t', T=    0.010736481983 / 
&RAMP ID='t', T=    0.011018970223 / 
&RAMP ID='t', T=    0.011301458463 / 
&RAMP ID='t', T=    0.011583946703 / 
&RAMP ID='t', T=    0.011866434943 / 
&RAMP ID='t', T=    0.012148923183 / 
&RAMP ID='t', T=    0.012431411423 / 
&RAMP ID='t', T=    0.012713899663 / 
&RAMP ID='t', T=    0.012996387903 / 
&RAMP ID='t', T=    0.013278876143 / 
&RAMP ID='t', T=    0.013561364383 / 
&RAMP ID='t', T=    0.013843852623 / 
&RAMP ID='t', T=    0.014126340863 / 
&RAMP ID='t', T=    0.014408829103 / 
&RAMP ID='t', T=    0.014691317343 / 
&RAMP ID='t', T=    0.014973805583 / 
&RAMP ID='t', T=    0.015256293822 / 
&RAMP ID='t', T=    0.015538782062 / 
&RAMP ID='t', T=    0.015821270302 / 
&RAMP ID='t', T=    0.016103758542 / 
&RAMP ID='t', T=    0.016386246782 / 
&RAMP ID='t', T=    0.016668735022 / 
&RAMP ID='t', T=    0.016951223262 / 
&RAMP ID='t', T=    0.017233711502 / 
&RAMP ID='t', T=    0.017516199742 / 
&RAMP ID='t', T=    0.017798687982 / 
&RAMP ID='t', T=    0.018081176222 / 
&RAMP ID='t', T=    0.018363664462 / 
&RAMP ID='t', T=    0.018789744017 / 
&RAMP ID='t', T=    0.019215823573 / 
&RAMP ID='t', T=    0.019641903128 / 
&RAMP ID='t', T=    0.020067982683 / 
&RAMP ID='t', T=    0.020494062239 / 
&RAMP ID='t', T=    0.020920141794 / 
&RAMP ID='t', T=    0.021346221350 / 
&RAMP ID='t', T=    0.021772300905 / 
&RAMP ID='t', T=    0.022198380460 / 
&RAMP ID='t', T=    0.022624460016 / 
&RAMP ID='t', T=    0.023050539571 / 
&RAMP ID='t', T=    0.023476619127 / 
&RAMP ID='t', T=    0.023902698682 / 
&RAMP ID='t', T=    0.024328778237 / 
&RAMP ID='t', T=    0.024754857793 / 
&RAMP ID='t', T=    0.025180937348 / 
&RAMP ID='t', T=    0.025607016903 / 
&RAMP ID='t', T=    0.026033096459 / 
&RAMP ID='t', T=    0.026459176014 / 
&RAMP ID='t', T=    0.026885255570 / 
&RAMP ID='t', T=    0.027311335125 / 
&RAMP ID='t', T=    0.027737414680 / 
&RAMP ID='t', T=    0.028163494236 / 
&RAMP ID='t', T=    0.028589573791 / 
&RAMP ID='t', T=    0.029015653347 / 
&RAMP ID='t', T=    0.029441732902 / 
&RAMP ID='t', T=    0.029867812457 / 
&RAMP ID='t', T=    0.030293892013 / 
&RAMP ID='t', T=    0.030719971568 / 
&RAMP ID='t', T=    0.031146051123 / 
&RAMP ID='t', T=    0.031794719825 / 
&RAMP ID='t', T=    0.032443388527 / 
&RAMP ID='t', T=    0.033092057229 / 
&RAMP ID='t', T=    0.033740725930 / 
&RAMP ID='t', T=    0.034389394632 / 
&RAMP ID='t', T=    0.035038063334 / 
&RAMP ID='t', T=    0.035686732035 / 
&RAMP ID='t', T=    0.036335400737 / 
&RAMP ID='t', T=    0.036984069439 / 
&RAMP ID='t', T=    0.037632738140 / 
&RAMP ID='t', T=    0.038281406842 / 
&RAMP ID='t', T=    0.038930075544 / 
&RAMP ID='t', T=    0.039578744246 / 
&RAMP ID='t', T=    0.040227412947 / 
&RAMP ID='t', T=    0.040876081649 / 
&RAMP ID='t', T=    0.041524750351 / 
&RAMP ID='t', T=    0.042173419052 / 
&RAMP ID='t', T=    0.042822087754 / 
&RAMP ID='t', T=    0.043470756456 / 
&RAMP ID='t', T=    0.044119425157 / 
&RAMP ID='t', T=    0.044768093859 / 
&RAMP ID='t', T=    0.045416762561 / 
&RAMP ID='t', T=    0.046065431263 / 
&RAMP ID='t', T=    0.046714099964 / 
&RAMP ID='t', T=    0.047362768666 / 
&RAMP ID='t', T=    0.048011437368 / 
&RAMP ID='t', T=    0.048660106069 / 
&RAMP ID='t', T=    0.049308774771 / 
&RAMP ID='t', T=    0.050287429371 / 
&RAMP ID='t', T=    0.051266083970 / 
&RAMP ID='t', T=    0.052244738570 / 
&RAMP ID='t', T=    0.053223393169 / 
&RAMP ID='t', T=    0.054202047769 / 
&RAMP ID='t', T=    0.055180702368 / 
&RAMP ID='t', T=    0.056159356968 / 
&RAMP ID='t', T=    0.057138011567 / 
&RAMP ID='t', T=    0.058116666167 / 
&RAMP ID='t', T=    0.059095320766 / 
&RAMP ID='t', T=    0.060073975366 / 
&RAMP ID='t', T=    0.061052629965 / 
&RAMP ID='t', T=    0.062031284565 / 
&RAMP ID='t', T=    0.063009939165 / 
&RAMP ID='t', T=    0.063988593764 / 
&RAMP ID='t', T=    0.065515824805 / 
&RAMP ID='t', T=    0.067043055846 / 
&RAMP ID='t', T=    0.068570286886 / 
&RAMP ID='t', T=    0.070097517927 / 
&RAMP ID='t', T=    0.071624748968 / 
&RAMP ID='t', T=    0.073151980009 / 
&RAMP ID='t', T=    0.074679211049 / 
&RAMP ID='t', T=    0.076206442090 / 
&RAMP ID='t', T=    0.077733673131 / 
&RAMP ID='t', T=    0.079260904172 / 
&RAMP ID='t', T=    0.081734912274 / 
&RAMP ID='t', T=    0.084208920377 / 
&RAMP ID='t', T=    0.086682928480 / 
&RAMP ID='t', T=    0.089156936583 / 
&RAMP ID='t', T=    0.091630944686 / 
&RAMP ID='t', T=    0.094104952789 / 
&RAMP ID='t', T=    0.096578960892 / 
&RAMP ID='t', T=    0.099052968995 / 
&RAMP ID='t', T=    0.101526977097 / 
&RAMP ID='t', T=    0.104000985200 / 
&RAMP ID='t', T=    0.106474993303 / 
&RAMP ID='t', T=    0.110448182131 / 
&RAMP ID='t', T=    0.114421370959 / 
&RAMP ID='t', T=    0.118394559788 / 
&RAMP ID='t', T=    0.122367748616 / 
&RAMP ID='t', T=    0.126340937444 / 
&RAMP ID='t', T=    0.130314126272 / 
&RAMP ID='t', T=    0.134287315100 / 
&RAMP ID='t', T=    0.140494860059 / 
&RAMP ID='t', T=    0.146702405018 / 
&RAMP ID='t', T=    0.152909949976 / 
&RAMP ID='t', T=    0.159117494935 / 
&RAMP ID='t', T=    0.165325039894 / 
&RAMP ID='t', T=    0.171532584852 / 
&RAMP ID='t', T=    0.181107476953 / 
&RAMP ID='t', T=    0.190682369054 / 
&RAMP ID='t', T=    0.200257261155 / 
&RAMP ID='t', T=    0.209832153256 / 
&RAMP ID='t', T=    0.219407045357 / 
&RAMP ID='t', T=    0.228981937458 / 
&RAMP ID='t', T=    0.238556829559 / 
&RAMP ID='t', T=    0.248131721660 / 
&RAMP ID='t', T=    0.257706613760 / 
&RAMP ID='t', T=    0.267281505861 / 
&RAMP ID='t', T=    0.276856397962 / 
&RAMP ID='t', T=    0.286431290063 / 
&RAMP ID='t', T=    0.296006182164 / 
&RAMP ID='t', T=    0.305581074265 / 
&RAMP ID='t', T=    0.315155966366 / 
&RAMP ID='t', T=    0.324730858467 / 
&RAMP ID='t', T=    0.334305750568 / 
&RAMP ID='t', T=    0.343880642669 / 
&RAMP ID='t', T=    0.353455534769 / 
&RAMP ID='t', T=    0.363030426870 / 
&RAMP ID='t', T=    0.372605318971 / 
&RAMP ID='t', T=    0.382180211072 / 
&RAMP ID='t', T=    0.391755103173 / 
&RAMP ID='t', T=    0.401329995274 / 
&RAMP ID='t', T=    0.410904887375 / 
&RAMP ID='t', T=    0.420479779476 / 
&RAMP ID='t', T=    0.430054671577 / 
&RAMP ID='t', T=    0.437117253393 / 
&RAMP ID='t', T=    0.444179835210 / 
&RAMP ID='t', T=    0.451242417026 / 
&RAMP ID='t', T=    0.458304998843 / 
&RAMP ID='t', T=    0.465367580659 / 
&RAMP ID='t', T=    0.472430162476 / 
&RAMP ID='t', T=    0.479492744292 / 
&RAMP ID='t', T=    0.486555326109 / 
&RAMP ID='t', T=    0.493617907925 / 
&RAMP ID='t', T=    0.498620888651 / 
&RAMP ID='t', T=    0.503623869377 / 
&RAMP ID='t', T=    0.508626850104 / 
&RAMP ID='t', T=    0.513629830830 / 
&RAMP ID='t', T=    0.518632811556 / 
&RAMP ID='t', T=    0.523635792282 / 
&RAMP ID='t', T=    0.528638773008 / 
&RAMP ID='t', T=    0.533641753734 / 
&RAMP ID='t', T=    0.538644734460 / 
&RAMP ID='t', T=    0.542316989690 / 
&RAMP ID='t', T=    0.545989244919 / 
&RAMP ID='t', T=    0.549661500149 / 
&RAMP ID='t', T=    0.553333755379 / 
&RAMP ID='t', T=    0.557006010608 / 
&RAMP ID='t', T=    0.560678265838 / 
&RAMP ID='t', T=    0.564350521067 / 
&RAMP ID='t', T=    0.568022776297 / 
&RAMP ID='t', T=    0.571695031527 / 
&RAMP ID='t', T=    0.575367286756 / 
&RAMP ID='t', T=    0.579039541986 / 
&RAMP ID='t', T=    0.582711797215 / 
&RAMP ID='t', T=    0.586384052445 / 
&RAMP ID='t', T=    0.590056307675 / 
&RAMP ID='t', T=    0.593728562904 / 
&RAMP ID='t', T=    0.597400818134 / 
&RAMP ID='t', T=    0.602939181793 / 
&RAMP ID='t', T=    0.608477545453 / 
&RAMP ID='t', T=    0.614015909112 / 
&RAMP ID='t', T=    0.619554272772 / 
&RAMP ID='t', T=    0.625092636431 / 
&RAMP ID='t', T=    0.630631000091 / 
&RAMP ID='t', T=    0.636169363751 / 
&RAMP ID='t', T=    0.641707727410 / 
&RAMP ID='t', T=    0.647246091070 / 
&RAMP ID='t', T=    0.652784454729 / 
&RAMP ID='t', T=    0.658322818389 / 
&RAMP ID='t', T=    0.663861182048 / 
&RAMP ID='t', T=    0.669399545708 / 
&RAMP ID='t', T=    0.674937909367 / 
&RAMP ID='t', T=    0.680476273027 / 
&RAMP ID='t', T=    0.686014636687 / 
&RAMP ID='t', T=    0.691553000346 / 
&RAMP ID='t', T=    0.697091364006 / 
&RAMP ID='t', T=    0.702629727665 / 
&RAMP ID='t', T=    0.708168091325 / 
&RAMP ID='t', T=    0.713706454984 / 
&RAMP ID='t', T=    0.719244818644 / 
&RAMP ID='t', T=    0.724783182303 / 
&RAMP ID='t', T=    0.730321545963 / 
&RAMP ID='t', T=    0.735859909622 / 
&RAMP ID='t', T=    0.741398273282 / 
&RAMP ID='t', T=    0.746936636942 / 
&RAMP ID='t', T=    0.752475000601 / 
&RAMP ID='t', T=    0.758013364261 / 
&RAMP ID='t', T=    0.763551727920 / 
&RAMP ID='t', T=    0.769090091580 / 
&RAMP ID='t', T=    0.774628455239 / 
&RAMP ID='t', T=    0.780166818899 / 
&RAMP ID='t', T=    0.785705182558 / 
&RAMP ID='t', T=    0.791243546218 / 
&RAMP ID='t', T=    0.795054196358 / 
&RAMP ID='t', T=    0.798864846497 / 
&RAMP ID='t', T=    0.802675496637 / 
&RAMP ID='t', T=    0.806486146776 / 
&RAMP ID='t', T=    0.810296796916 / 
&RAMP ID='t', T=    0.814107447055 / 
&RAMP ID='t', T=    0.817918097195 / 
&RAMP ID='t', T=    0.821728747334 / 
&RAMP ID='t', T=    0.825539397474 / 
&RAMP ID='t', T=    0.829350047613 / 
&RAMP ID='t', T=    0.833160697753 / 
&RAMP ID='t', T=    0.836971347892 / 
&RAMP ID='t', T=    0.840781998032 / 
&RAMP ID='t', T=    0.844592648172 / 
&RAMP ID='t', T=    0.848403298311 / 
&RAMP ID='t', T=    0.852213948451 / 
&RAMP ID='t', T=    0.856024598590 / 
&RAMP ID='t', T=    0.859835248730 / 
&RAMP ID='t', T=    0.863645898869 / 
&RAMP ID='t', T=    0.867456549009 / 
&RAMP ID='t', T=    0.871267199148 / 
&RAMP ID='t', T=    0.875077849288 / 
&RAMP ID='t', T=    0.878888499427 / 
&RAMP ID='t', T=    0.882699149567 / 
&RAMP ID='t', T=    0.886509799706 / 
&RAMP ID='t', T=    0.890320449846 / 
&RAMP ID='t', T=    0.894131099986 / 
&RAMP ID='t', T=    0.897941750125 / 
&RAMP ID='t', T=    0.901752400265 / 
&RAMP ID='t', T=    0.905563050404 / 
&RAMP ID='t', T=    0.909373700544 / 
&RAMP ID='t', T=    0.913184350683 / 
&RAMP ID='t', T=    0.916995000823 / 
&RAMP ID='t', T=    0.920805650962 / 
&RAMP ID='t', T=    0.924616301102 / 
&RAMP ID='t', T=    0.928426951241 / 
&RAMP ID='t', T=    0.932237601381 / 
&RAMP ID='t', T=    0.936048251521 / 
&RAMP ID='t', T=    0.939858901660 / 
&RAMP ID='t', T=    0.943669551800 / 
&RAMP ID='t', T=    0.947480201939 / 
&RAMP ID='t', T=    0.951290852079 / 
&RAMP ID='t', T=    0.955101502218 / 
&RAMP ID='t', T=    0.958912152358 / 
&RAMP ID='t', T=    0.962722802497 / 
&RAMP ID='t', T=    0.966533452637 / 
&RAMP ID='t', T=    0.970344102776 / 
&RAMP ID='t', T=    0.974154752916 / 
&RAMP ID='t', T=    0.977965403055 / 
&RAMP ID='t', T=    0.980788102192 / 
&RAMP ID='t', T=    0.983610801329 / 
&RAMP ID='t', T=    0.986433500465 / 
&RAMP ID='t', T=    0.989256199602 / 
&RAMP ID='t', T=    0.991309306987 / 
&RAMP ID='t', T=    0.992813231852 / 
&RAMP ID='t', T=    0.994317156717 / 
&RAMP ID='t', T=    0.995821081582 / 
&RAMP ID='t', T=    0.997325006447 / 
&RAMP ID='t', T=    0.998828931312 / 
&RAMP ID='t', T=    1.000332856177 / 
&RAMP ID='t', T=    1.001836781042 / 
&RAMP ID='t', T=    1.003340705907 / 
&RAMP ID='t', T=    1.004844630772 / 
&RAMP ID='t', T=    1.006348555636 / 
&RAMP ID='t', T=    1.007852480501 / 
&RAMP ID='t', T=    1.009356405366 / 
&RAMP ID='t', T=    1.010860330231 / 
&RAMP ID='t', T=    1.012364255096 / 
&RAMP ID='t', T=    1.013868179961 / 
&RAMP ID='t', T=    1.015372104826 / 
&RAMP ID='t', T=    1.016876029691 / 
&RAMP ID='t', T=    1.018379954556 / 
&RAMP ID='t', T=    1.020784015966 / 
&RAMP ID='t', T=    1.023188077376 / 
&RAMP ID='t', T=    1.025592138786 / 
&RAMP ID='t', T=    1.027996200197 / 
&RAMP ID='t', T=    1.030400261607 / 
&RAMP ID='t', T=    1.032804323017 / 
&RAMP ID='t', T=    1.035208384427 / 
&RAMP ID='t', T=    1.037612445837 / 
&RAMP ID='t', T=    1.040016507248 / 
&RAMP ID='t', T=    1.042420568658 / 
&RAMP ID='t', T=    1.044824630068 / 
&RAMP ID='t', T=    1.047228691478 / 
&RAMP ID='t', T=    1.049632752888 / 
&RAMP ID='t', T=    1.052036814299 / 
&RAMP ID='t', T=    1.054440875709 / 
&RAMP ID='t', T=    1.056844937119 / 
&RAMP ID='t', T=    1.059248998529 / 
&RAMP ID='t', T=    1.061653059939 / 
&RAMP ID='t', T=    1.064057121350 / 
&RAMP ID='t', T=    1.066461182760 / 
&RAMP ID='t', T=    1.068865244170 / 
&RAMP ID='t', T=    1.071269305580 / 
&RAMP ID='t', T=    1.073673366990 / 
&RAMP ID='t', T=    1.076077428401 / 
&RAMP ID='t', T=    1.078481489811 / 
&RAMP ID='t', T=    1.080885551221 / 
&RAMP ID='t', T=    1.083289612631 / 
&RAMP ID='t', T=    1.085693674041 / 
&RAMP ID='t', T=    1.087379856536 / 
&RAMP ID='t', T=    1.089066039031 / 
&RAMP ID='t', T=    1.090752221526 / 
&RAMP ID='t', T=    1.092438404021 / 
&RAMP ID='t', T=    1.094124586515 / 
&RAMP ID='t', T=    1.095810769010 / 
&RAMP ID='t', T=    1.097496951505 / 
&RAMP ID='t', T=    1.099183134000 / 
&RAMP ID='t', T=    1.100869316494 / 
&RAMP ID='t', T=    1.102555498989 / 
&RAMP ID='t', T=    1.104241681484 / 
&RAMP ID='t', T=    1.105927863979 / 
&RAMP ID='t', T=    1.107614046473 / 
&RAMP ID='t', T=    1.109300228968 / 
&RAMP ID='t', T=    1.110986411463 / 
&RAMP ID='t', T=    1.112672593958 / 
&RAMP ID='t', T=    1.114358776453 / 
&RAMP ID='t', T=    1.116044958947 / 
&RAMP ID='t', T=    1.117731141442 / 
&RAMP ID='t', T=    1.119417323937 / 
&RAMP ID='t', T=    1.121103506432 / 
&RAMP ID='t', T=    1.122789688926 / 
&RAMP ID='t', T=    1.124475871421 / 
&RAMP ID='t', T=    1.126162053916 / 
&RAMP ID='t', T=    1.127848236411 / 
&RAMP ID='t', T=    1.129534418905 / 
&RAMP ID='t', T=    1.131220601400 / 
&RAMP ID='t', T=    1.132906783895 / 
&RAMP ID='t', T=    1.134592966390 / 
&RAMP ID='t', T=    1.136279148885 / 
&RAMP ID='t', T=    1.137965331379 / 
&RAMP ID='t', T=    1.139651513874 / 
&RAMP ID='t', T=    1.141337696369 / 
&RAMP ID='t', T=    1.143023878864 / 
&RAMP ID='t', T=    1.144710061358 / 
&RAMP ID='t', T=    1.146396243853 / 
&RAMP ID='t', T=    1.148082426348 / 
&RAMP ID='t', T=    1.149768608843 / 
&RAMP ID='t', T=    1.151454791337 / 
&RAMP ID='t', T=    1.153140973832 / 
&RAMP ID='t', T=    1.154827156327 / 
&RAMP ID='t', T=    1.156513338822 / 
&RAMP ID='t', T=    1.158199521317 / 
&RAMP ID='t', T=    1.159885703811 / 
&RAMP ID='t', T=    1.161571886306 / 
&RAMP ID='t', T=    1.163258068801 / 
&RAMP ID='t', T=    1.164944251296 / 
&RAMP ID='t', T=    1.166630433790 / 
&RAMP ID='t', T=    1.168316616285 / 
&RAMP ID='t', T=    1.169446098498 / 
&RAMP ID='t', T=    1.170236854254 / 
&RAMP ID='t', T=    1.171027610011 / 
&RAMP ID='t', T=    1.171818365768 / 
&RAMP ID='t', T=    1.172609121524 / 
&RAMP ID='t', T=    1.173144630300 / 
&RAMP ID='t', T=    1.173680139075 / 
&RAMP ID='t', T=    1.174215647851 / 
&RAMP ID='t', T=    1.174751156626 / 
&RAMP ID='t', T=    1.175286665402 / 
&RAMP ID='t', T=    1.175822174177 / 
&RAMP ID='t', T=    1.176357682953 / 
&RAMP ID='t', T=    1.176893191729 / 
&RAMP ID='t', T=    1.177266544150 / 
&RAMP ID='t', T=    1.177541649636 / 
&RAMP ID='t', T=    1.177816755122 / 
&RAMP ID='t', T=    1.178091860608 / 
&RAMP ID='t', T=    1.178366966094 / 
&RAMP ID='t', T=    1.178642071581 / 
&RAMP ID='t', T=    1.178917177067 / 
&RAMP ID='t', T=    1.179192282553 / 
&RAMP ID='t', T=    1.179467388039 / 
&RAMP ID='t', T=    1.179742493525 / 
&RAMP ID='t', T=    1.180017599012 / 
&RAMP ID='t', T=    1.180292704498 / 
&RAMP ID='t', T=    1.180567809984 / 
&RAMP ID='t', T=    1.180842915470 / 
&RAMP ID='t', T=    1.181118020956 / 
&RAMP ID='t', T=    1.181393126443 / 
&RAMP ID='t', T=    1.181668231929 / 
&RAMP ID='t', T=    1.181943337415 / 
&RAMP ID='t', T=    1.182218442901 / 
&RAMP ID='t', T=    1.182493548387 / 
&RAMP ID='t', T=    1.182768653874 / 
&RAMP ID='t', T=    1.183043759360 / 
&RAMP ID='t', T=    1.183318864846 / 
&RAMP ID='t', T=    1.183593970332 / 
&RAMP ID='t', T=    1.183869075818 / 
&RAMP ID='t', T=    1.184144181305 / 
&RAMP ID='t', T=    1.184419286791 / 
&RAMP ID='t', T=    1.184694392277 / 
&RAMP ID='t', T=    1.184969497763 / 
&RAMP ID='t', T=    1.185244603249 / 
&RAMP ID='t', T=    1.185519708736 / 
&RAMP ID='t', T=    1.185794814222 / 
&RAMP ID='t', T=    1.186069919708 / 
&RAMP ID='t', T=    1.186345025194 / 
&RAMP ID='t', T=    1.186763028478 / 
&RAMP ID='t', T=    1.187181031761 / 
&RAMP ID='t', T=    1.187599035045 / 
&RAMP ID='t', T=    1.188017038329 / 
&RAMP ID='t', T=    1.188761186830 / 
&RAMP ID='t', T=    1.189505335331 / 
&RAMP ID='t', T=    1.190249483832 / 
&RAMP ID='t', T=    1.190993632333 / 
&RAMP ID='t', T=    1.191737780834 / 
&RAMP ID='t', T=    1.192481929335 / 
&RAMP ID='t', T=    1.193226077836 / 
&RAMP ID='t', T=    1.193970226337 / 
&RAMP ID='t', T=    1.194714374838 / 
&RAMP ID='t', T=    1.195458523339 / 
&RAMP ID='t', T=    1.196202671840 / 
&RAMP ID='t', T=    1.197319744540 / 
&RAMP ID='t', T=    1.198436817239 / 
&RAMP ID='t', T=    1.199553889939 / 
&RAMP ID='t', T=    1.200670962638 / 
&RAMP ID='t', T=    1.201788035338 / 
&RAMP ID='t', T=    1.202905108037 / 
&RAMP ID='t', T=    1.204022180737 / 
&RAMP ID='t', T=    1.205139253436 / 
&RAMP ID='t', T=    1.206256326136 / 
&RAMP ID='t', T=    1.207074822806 / 
&RAMP ID='t', T=    1.207893319476 / 
&RAMP ID='t', T=    1.208711816147 / 
&RAMP ID='t', T=    1.209530312817 / 
&RAMP ID='t', T=    1.210348809488 / 
&RAMP ID='t', T=    1.211167306158 / 
&RAMP ID='t', T=    1.211985802828 / 
&RAMP ID='t', T=    1.212804299499 / 
&RAMP ID='t', T=    1.213622796169 / 
&RAMP ID='t', T=    1.214441292840 / 
&RAMP ID='t', T=    1.215259789510 / 
&RAMP ID='t', T=    1.216078286180 / 
&RAMP ID='t', T=    1.216896782851 / 
&RAMP ID='t', T=    1.217494422579 / 
&RAMP ID='t', T=    1.218092062307 / 
&RAMP ID='t', T=    1.218689702035 / 
&RAMP ID='t', T=    1.219287341763 / 
&RAMP ID='t', T=    1.219884981492 / 
&RAMP ID='t', T=    1.220312118772 / 
&RAMP ID='t', T=    1.220621062240 / 
&RAMP ID='t', T=    1.220847756125 / 
&RAMP ID='t', T=    1.221074450010 / 
&RAMP ID='t', T=    1.221301143895 / 
&RAMP ID='t', T=    1.221527837780 / 
&RAMP ID='t', T=    1.221754531665 / 
&RAMP ID='t', T=    1.221981225550 / 
&RAMP ID='t', T=    1.222207919435 / 
&RAMP ID='t', T=    1.222434613320 / 
&RAMP ID='t', T=    1.222661307205 / 
&RAMP ID='t', T=    1.223015714860 / 
&RAMP ID='t', T=    1.223370122515 / 
&RAMP ID='t', T=    1.223724530170 / 
&RAMP ID='t', T=    1.224078937825 / 
&RAMP ID='t', T=    1.224433345480 / 
&RAMP ID='t', T=    1.224987918058 / 
&RAMP ID='t', T=    1.225542490636 / 
&RAMP ID='t', T=    1.226097063214 / 
&RAMP ID='t', T=    1.226651635792 / 
&RAMP ID='t', T=    1.227206208370 / 
&RAMP ID='t', T=    1.227760780947 / 
&RAMP ID='t', T=    1.228315353525 / 
&RAMP ID='t', T=    1.228869926103 / 
&RAMP ID='t', T=    1.229424498681 / 
&RAMP ID='t', T=    1.229979071259 / 
&RAMP ID='t', T=    1.230533643837 / 
&RAMP ID='t', T=    1.231088216415 / 
&RAMP ID='t', T=    1.231642788992 / 
&RAMP ID='t', T=    1.232197361570 / 
&RAMP ID='t', T=    1.232751934148 / 
&RAMP ID='t', T=    1.233306506726 / 
&RAMP ID='t', T=    1.233861079304 / 
&RAMP ID='t', T=    1.234415651882 / 
&RAMP ID='t', T=    1.234970224460 / 
&RAMP ID='t', T=    1.235524797037 / 
&RAMP ID='t', T=    1.236079369615 / 
&RAMP ID='t', T=    1.236633942193 / 
&RAMP ID='t', T=    1.237188514771 / 
&RAMP ID='t', T=    1.237743087349 / 
&RAMP ID='t', T=    1.238143070485 / 
&RAMP ID='t', T=    1.238543053620 / 
&RAMP ID='t', T=    1.238943036756 / 
&RAMP ID='t', T=    1.239343019892 / 
&RAMP ID='t', T=    1.239743003027 / 
&RAMP ID='t', T=    1.240142986163 / 
&RAMP ID='t', T=    1.240542969299 / 
&RAMP ID='t', T=    1.240942952434 / 
&RAMP ID='t', T=    1.241207573887 / 
&RAMP ID='t', T=    1.241472195339 / 
&RAMP ID='t', T=    1.241736816791 / 
&RAMP ID='t', T=    1.242001438244 / 
&RAMP ID='t', T=    1.242173729656 / 
&RAMP ID='t', T=    1.242346021068 / 
&RAMP ID='t', T=    1.242518312480 / 
&RAMP ID='t', T=    1.242690603892 / 
&RAMP ID='t', T=    1.242862895304 / 
&RAMP ID='t', T=    1.243035186716 / 
&RAMP ID='t', T=    1.243207478128 / 
&RAMP ID='t', T=    1.243379769540 / 
&RAMP ID='t', T=    1.243552060952 / 
&RAMP ID='t', T=    1.243724352365 / 
&RAMP ID='t', T=    1.243896643777 / 
&RAMP ID='t', T=    1.244068935189 / 
&RAMP ID='t', T=    1.244241226601 / 
&RAMP ID='t', T=    1.244413518013 / 
&RAMP ID='t', T=    1.244585809425 / 
&RAMP ID='t', T=    1.244852446806 / 
&RAMP ID='t', T=    1.245119084186 / 
&RAMP ID='t', T=    1.245385721567 / 
&RAMP ID='t', T=    1.245652358948 / 
&RAMP ID='t', T=    1.245918996328 / 
&RAMP ID='t', T=    1.246338709807 / 
&RAMP ID='t', T=    1.246758423285 / 
&RAMP ID='t', T=    1.247178136763 / 
&RAMP ID='t', T=    1.247597850241 / 
&RAMP ID='t', T=    1.248017563719 / 
&RAMP ID='t', T=    1.248437277197 / 
&RAMP ID='t', T=    1.248856990676 / 
&RAMP ID='t', T=    1.249276704154 / 
&RAMP ID='t', T=    1.249696417632 / 
&RAMP ID='t', T=    1.250116131110 / 
&RAMP ID='t', T=    1.250535844588 / 
&RAMP ID='t', T=    1.250955558066 / 
&RAMP ID='t', T=    1.251375271544 / 
&RAMP ID='t', T=    1.251794985023 / 
&RAMP ID='t', T=    1.252080897866 / 
&RAMP ID='t', T=    1.252271961942 / 
&RAMP ID='t', T=    1.252402999377 / 
&RAMP ID='t', T=    1.252496856821 / 
&RAMP ID='t', T=    1.252590714264 / 
&RAMP ID='t', T=    1.252684571708 / 
&RAMP ID='t', T=    1.252778429151 / 
&RAMP ID='t', T=    1.252872286595 / 
&RAMP ID='t', T=    1.252937063829 / 
&RAMP ID='t', T=    1.252981082539 / 
&RAMP ID='t', T=    1.253012050475 / 
&RAMP ID='t', T=    1.253043018410 / 
&RAMP ID='t', T=    1.253073986346 / 
&RAMP ID='t', T=    1.253104954281 / 
&RAMP ID='t', T=    1.253135922216 / 
&RAMP ID='t', T=    1.253157848233 / 
&RAMP ID='t', T=    1.253173256343 / 
&RAMP ID='t', T=    1.253184599896 / 
&RAMP ID='t', T=    1.253195943448 / 
&RAMP ID='t', T=    1.253207287001 / 
&RAMP ID='t', T=    1.253218630553 / 
&RAMP ID='t', T=    1.253229974106 / 
&RAMP ID='t', T=    1.253241317658 / 
&RAMP ID='t', T=    1.253258383331 / 
&RAMP ID='t', T=    1.253275449003 / 
&RAMP ID='t', T=    1.253292514676 / 
&RAMP ID='t', T=    1.253309580348 / 
&RAMP ID='t', T=    1.253326646021 / 
&RAMP ID='t', T=    1.253364664989 / 
&RAMP ID='t', T=    1.253402683957 / 
&RAMP ID='t', T=    1.253440702925 / 
&RAMP ID='t', T=    1.253478721893 / 
&RAMP ID='t', T=    1.253548494235 / 
&RAMP ID='t', T=    1.253674511731 / 
&RAMP ID='t', T=    1.253800529227 / 
&RAMP ID='t', T=    1.253926546724 / 
&RAMP ID='t', T=    1.254052564220 / 
&RAMP ID='t', T=    1.254178581716 / 
&RAMP ID='t', T=    1.254304599212 / 
&RAMP ID='t', T=    1.254430616708 / 
&RAMP ID='t', T=    1.254556634205 / 
&RAMP ID='t', T=    1.254763848997 / 
&RAMP ID='t', T=    1.254971063790 / 
&RAMP ID='t', T=    1.255178278583 / 
&RAMP ID='t', T=    1.255385493375 / 
&RAMP ID='t', T=    1.255592708168 / 
&RAMP ID='t', T=    1.255799922961 / 
&RAMP ID='t', T=    1.256007137753 / 
&RAMP ID='t', T=    1.256214352546 / 
&RAMP ID='t', T=    1.256421567339 / 
&RAMP ID='t', T=    1.256628782132 / 
&RAMP ID='t', T=    1.256835996924 / 
&RAMP ID='t', T=    1.257043211717 / 
&RAMP ID='t', T=    1.257250426510 / 
&RAMP ID='t', T=    1.257457641302 / 
&RAMP ID='t', T=    1.257664856095 / 
&RAMP ID='t', T=    1.257872070888 / 
&RAMP ID='t', T=    1.258024010891 / 
&RAMP ID='t', T=    1.258131885662 / 
&RAMP ID='t', T=    1.258210478613 / 
&RAMP ID='t', T=    1.258289071563 / 
&RAMP ID='t', T=    1.258367664514 / 
&RAMP ID='t', T=    1.258446257464 / 
&RAMP ID='t', T=    1.258524850415 / 
&RAMP ID='t', T=    1.258603443365 / 
&RAMP ID='t', T=    1.258659291155 / 
&RAMP ID='t', T=    1.258697999669 / 
&RAMP ID='t', T=    1.258725552006 / 
&RAMP ID='t', T=    1.258753104344 / 
&RAMP ID='t', T=    1.258780656682 / 
&RAMP ID='t', T=    1.258808209019 / 
&RAMP ID='t', T=    1.258835761357 / 
&RAMP ID='t', T=    1.258855616416 / 
&RAMP ID='t', T=    1.258869704521 / 
&RAMP ID='t', T=    1.258880056268 / 
&RAMP ID='t', T=    1.258890408015 / 
&RAMP ID='t', T=    1.258900759762 / 
&RAMP ID='t', T=    1.258911111509 / 
&RAMP ID='t', T=    1.258921463256 / 
&RAMP ID='t', T=    1.258931815004 / 
&RAMP ID='t', T=    1.258942166751 / 
&RAMP ID='t', T=    1.258952518498 / 
&RAMP ID='t', T=    1.258962870245 / 
&RAMP ID='t', T=    1.258981747974 / 
&RAMP ID='t', T=    1.259000625703 / 
&RAMP ID='t', T=    1.259019503432 / 
&RAMP ID='t', T=    1.259038381161 / 
&RAMP ID='t', T=    1.259078463969 / 
&RAMP ID='t', T=    1.259146474567 / 
&RAMP ID='t', T=    1.259214485166 / 
&RAMP ID='t', T=    1.259282495765 / 
&RAMP ID='t', T=    1.259350506363 / 
&RAMP ID='t', T=    1.259472450847 / 
&RAMP ID='t', T=    1.259594395330 / 
&RAMP ID='t', T=    1.259716339813 / 
&RAMP ID='t', T=    1.259838284297 / 
&RAMP ID='t', T=    1.259960228780 / 
&RAMP ID='t', T=    1.260082173264 / 
&RAMP ID='t', T=    1.260292366595 / 
&RAMP ID='t', T=    1.260444845536 / 
&RAMP ID='t', T=    1.260597324476 / 
&RAMP ID='t', T=    1.260749803417 / 
&RAMP ID='t', T=    1.260902282357 / 
&RAMP ID='t', T=    1.261054761298 / 
&RAMP ID='t', T=    1.261207240238 / 
&RAMP ID='t', T=    1.261359719179 / 
&RAMP ID='t', T=    1.261512198120 / 
&RAMP ID='t', T=    1.261664677060 / 
&RAMP ID='t', T=    1.261817156001 / 
&RAMP ID='t', T=    1.261969634941 / 
&RAMP ID='t', T=    1.262122113882 / 
&RAMP ID='t', T=    1.262274592822 / 
&RAMP ID='t', T=    1.262427071763 / 
&RAMP ID='t', T=    1.262538226027 / 
&RAMP ID='t', T=    1.262616168254 / 
&RAMP ID='t', T=    1.262671995914 / 
&RAMP ID='t', T=    1.262727823573 / 
&RAMP ID='t', T=    1.262783651233 / 
&RAMP ID='t', T=    1.262839478893 / 
&RAMP ID='t', T=    1.262895306553 / 
&RAMP ID='t', T=    1.262933981151 / 
&RAMP ID='t', T=    1.262960344587 / 
&RAMP ID='t', T=    1.262978956929 / 
&RAMP ID='t', T=    1.262997569272 / 
&RAMP ID='t', T=    1.263016181615 / 
&RAMP ID='t', T=    1.263034793957 / 
&RAMP ID='t', T=    1.263053406300 / 
&RAMP ID='t', T=    1.263067100029 / 
&RAMP ID='t', T=    1.263077065592 / 
&RAMP ID='t', T=    1.263087031154 / 
&RAMP ID='t', T=    1.263096996716 / 
&RAMP ID='t', T=    1.263106962278 / 
&RAMP ID='t', T=    1.263116927840 / 
&RAMP ID='t', T=    1.263126893402 / 
&RAMP ID='t', T=    1.263136858964 / 
&RAMP ID='t', T=    1.263146824526 / 
&RAMP ID='t', T=    1.263156790088 / 
&RAMP ID='t', T=    1.263176240174 / 
&RAMP ID='t', T=    1.263195690260 / 
&RAMP ID='t', T=    1.263215140346 / 
&RAMP ID='t', T=    1.263234590432 / 
&RAMP ID='t', T=    1.263269567148 / 
&RAMP ID='t', T=    1.263332294949 / 
&RAMP ID='t', T=    1.263395022751 / 
&RAMP ID='t', T=    1.263457750553 / 
&RAMP ID='t', T=    1.263520478354 / 
&RAMP ID='t', T=    1.263583206156 / 
&RAMP ID='t', T=    1.263645933957 / 