&HEAD CHID='ign_delay_Methane_grimech30_T1100K_Phi1p4', TITLE='ign_delay Methane_grimech30 T=1100K Phi=1.4' /

&MISC GVEC(3)=0.0, NOISE=F, STRATIFICATION=F, SIMULATION_MODE='DNS' /

&RADI RADIATION=F/
&SURF ID='DEF',DEFAULT=T,ADIABATIC=T/

&COMB FINITE_RATE_MIN_TEMP=300,ZZ_MIN_GLOBAL=1E-15,INITIAL_UNMIXED_FRACTION=0.0,ODE_SOLVER='CVODE',ODE_MIN_ATOL=1E-15,ODE_REL_ERROR=1E-9/
&TIME T_END=10, RAMP_TIME='t' /
&DUMP FLUSH_FILE_BUFFERS=T, DT_DEVC=1e-20/

&CATF OTHER_FILES='../../Utilities/Input_Libraries/Chemical_Mechanisms/FDS/Methane_grimech30.fds' /

&MESH IJK=5,1,5, XB=0.0,1.0,0.0,0.2,0.0,1.0 /
&OBST XB=0.0,1.0,0.0,0.2,0.0,1.0/
&HOLE XB=0.4,0.6,-1.0,1.0,0.4,0.6/
&INIT XB=0.4,0.6,-1.0,1.0,0.4,0.6, MASS_FRACTION(1)=0.21538665, SPEC_ID(1)='O2',MASS_FRACTION(2)=0.07559265,SPEC_ID(2)='CH4',  TEMPERATURE=826.85 /
&DEVC XYZ=0.5,0.0,0.5, QUANTITY='MASS FRACTION', SPEC_ID='OH',  ID='OH' /
&DEVC XYZ=0.5,0.0,0.5, QUANTITY='TEMPERATURE', ID='TMP'/

&RAMP ID='t', T=    0.000000000001 / 
&RAMP ID='t', T=    0.000000007368 / 
&RAMP ID='t', T=    0.000000081039 / 
&RAMP ID='t', T=    0.000000224756 / 
&RAMP ID='t', T=    0.000000466485 / 
&RAMP ID='t', T=    0.000000708214 / 
&RAMP ID='t', T=    0.000000949943 / 
&RAMP ID='t', T=    0.000001191671 / 
&RAMP ID='t', T=    0.000001592842 / 
&RAMP ID='t', T=    0.000001994012 / 
&RAMP ID='t', T=    0.000002395183 / 
&RAMP ID='t', T=    0.000002796354 / 
&RAMP ID='t', T=    0.000003197524 / 
&RAMP ID='t', T=    0.000003598695 / 
&RAMP ID='t', T=    0.000003999865 / 
&RAMP ID='t', T=    0.000004733634 / 
&RAMP ID='t', T=    0.000005467403 / 
&RAMP ID='t', T=    0.000006201172 / 
&RAMP ID='t', T=    0.000006934941 / 
&RAMP ID='t', T=    0.000007668710 / 
&RAMP ID='t', T=    0.000008906844 / 
&RAMP ID='t', T=    0.000010144979 / 
&RAMP ID='t', T=    0.000011383113 / 
&RAMP ID='t', T=    0.000013456973 / 
&RAMP ID='t', T=    0.000015530832 / 
&RAMP ID='t', T=    0.000017604692 / 
&RAMP ID='t', T=    0.000019678552 / 
&RAMP ID='t', T=    0.000025296649 / 
&RAMP ID='t', T=    0.000030914746 / 
&RAMP ID='t', T=    0.000039345857 / 
&RAMP ID='t', T=    0.000052055765 / 
&RAMP ID='t', T=    0.000064765672 / 
&RAMP ID='t', T=    0.000077475580 / 
&RAMP ID='t', T=    0.000090185487 / 
&RAMP ID='t', T=    0.000102895395 / 
&RAMP ID='t', T=    0.000115605303 / 
&RAMP ID='t', T=    0.000128315210 / 
&RAMP ID='t', T=    0.000151616926 / 
&RAMP ID='t', T=    0.000174918641 / 
&RAMP ID='t', T=    0.000198220357 / 
&RAMP ID='t', T=    0.000221522072 / 
&RAMP ID='t', T=    0.000244823788 / 
&RAMP ID='t', T=    0.000280175823 / 
&RAMP ID='t', T=    0.000315527859 / 
&RAMP ID='t', T=    0.000350879894 / 
&RAMP ID='t', T=    0.000386231930 / 
&RAMP ID='t', T=    0.000421583965 / 
&RAMP ID='t', T=    0.000456936001 / 
&RAMP ID='t', T=    0.000492288036 / 
&RAMP ID='t', T=    0.000527640072 / 
&RAMP ID='t', T=    0.000562992107 / 
&RAMP ID='t', T=    0.000598344143 / 
&RAMP ID='t', T=    0.000633696179 / 
&RAMP ID='t', T=    0.000669048214 / 
&RAMP ID='t', T=    0.000704400250 / 
&RAMP ID='t', T=    0.000739752285 / 
&RAMP ID='t', T=    0.000775104321 / 
&RAMP ID='t', T=    0.000810456356 / 
&RAMP ID='t', T=    0.000845808392 / 
&RAMP ID='t', T=    0.000881160427 / 
&RAMP ID='t', T=    0.000936046947 / 
&RAMP ID='t', T=    0.000990933468 / 
&RAMP ID='t', T=    0.001045819988 / 
&RAMP ID='t', T=    0.001100706508 / 
&RAMP ID='t', T=    0.001155593028 / 
&RAMP ID='t', T=    0.001210479548 / 
&RAMP ID='t', T=    0.001265366069 / 
&RAMP ID='t', T=    0.001320252589 / 
&RAMP ID='t', T=    0.001375139109 / 
&RAMP ID='t', T=    0.001430025629 / 
&RAMP ID='t', T=    0.001516190118 / 
&RAMP ID='t', T=    0.001602354607 / 
&RAMP ID='t', T=    0.001688519096 / 
&RAMP ID='t', T=    0.001774683585 / 
&RAMP ID='t', T=    0.001860848073 / 
&RAMP ID='t', T=    0.001947012562 / 
&RAMP ID='t', T=    0.002033177051 / 
&RAMP ID='t', T=    0.002119341540 / 
&RAMP ID='t', T=    0.002205506029 / 
&RAMP ID='t', T=    0.002291670518 / 
&RAMP ID='t', T=    0.002377835007 / 
&RAMP ID='t', T=    0.002463999495 / 
&RAMP ID='t', T=    0.002550163984 / 
&RAMP ID='t', T=    0.002636328473 / 
&RAMP ID='t', T=    0.002722492962 / 
&RAMP ID='t', T=    0.002808657451 / 
&RAMP ID='t', T=    0.002894821940 / 
&RAMP ID='t', T=    0.002980986429 / 
&RAMP ID='t', T=    0.003067150918 / 
&RAMP ID='t', T=    0.003153315406 / 
&RAMP ID='t', T=    0.003239479895 / 
&RAMP ID='t', T=    0.003325644384 / 
&RAMP ID='t', T=    0.003411808873 / 
&RAMP ID='t', T=    0.003497973362 / 
&RAMP ID='t', T=    0.003584137851 / 
&RAMP ID='t', T=    0.003670302340 / 
&RAMP ID='t', T=    0.003756466828 / 
&RAMP ID='t', T=    0.003842631317 / 
&RAMP ID='t', T=    0.003928795806 / 
&RAMP ID='t', T=    0.004014960295 / 
&RAMP ID='t', T=    0.004101124784 / 
&RAMP ID='t', T=    0.004187289273 / 
&RAMP ID='t', T=    0.004273453762 / 
&RAMP ID='t', T=    0.004359618251 / 
&RAMP ID='t', T=    0.004445782739 / 
&RAMP ID='t', T=    0.004531947228 / 
&RAMP ID='t', T=    0.004618111717 / 
&RAMP ID='t', T=    0.004704276206 / 
&RAMP ID='t', T=    0.004790440695 / 
&RAMP ID='t', T=    0.004876605184 / 
&RAMP ID='t', T=    0.004962769673 / 
&RAMP ID='t', T=    0.005048934162 / 
&RAMP ID='t', T=    0.005135098650 / 
&RAMP ID='t', T=    0.005221263139 / 
&RAMP ID='t', T=    0.005307427628 / 
&RAMP ID='t', T=    0.005393592117 / 
&RAMP ID='t', T=    0.005479756606 / 
&RAMP ID='t', T=    0.005565921095 / 
&RAMP ID='t', T=    0.005652085584 / 
&RAMP ID='t', T=    0.005738250072 / 
&RAMP ID='t', T=    0.005824414561 / 
&RAMP ID='t', T=    0.005910579050 / 
&RAMP ID='t', T=    0.005996743539 / 
&RAMP ID='t', T=    0.006082908028 / 
&RAMP ID='t', T=    0.006169072517 / 
&RAMP ID='t', T=    0.006255237006 / 
&RAMP ID='t', T=    0.006341401495 / 
&RAMP ID='t', T=    0.006427565983 / 
&RAMP ID='t', T=    0.006513730472 / 
&RAMP ID='t', T=    0.006599894961 / 
&RAMP ID='t', T=    0.006686059450 / 
&RAMP ID='t', T=    0.006772223939 / 
&RAMP ID='t', T=    0.006858388428 / 
&RAMP ID='t', T=    0.006944552917 / 
&RAMP ID='t', T=    0.007030717405 / 
&RAMP ID='t', T=    0.007116881894 / 
&RAMP ID='t', T=    0.007203046383 / 
&RAMP ID='t', T=    0.007289210872 / 
&RAMP ID='t', T=    0.007375375361 / 
&RAMP ID='t', T=    0.007461539850 / 
&RAMP ID='t', T=    0.007547704339 / 
&RAMP ID='t', T=    0.007633868828 / 
&RAMP ID='t', T=    0.007720033316 / 
&RAMP ID='t', T=    0.007806197805 / 
&RAMP ID='t', T=    0.007892362294 / 
&RAMP ID='t', T=    0.007978526783 / 
&RAMP ID='t', T=    0.008108745109 / 
&RAMP ID='t', T=    0.008238963435 / 
&RAMP ID='t', T=    0.008369181761 / 
&RAMP ID='t', T=    0.008499400087 / 
&RAMP ID='t', T=    0.008629618413 / 
&RAMP ID='t', T=    0.008759836738 / 
&RAMP ID='t', T=    0.008890055064 / 
&RAMP ID='t', T=    0.009020273390 / 
&RAMP ID='t', T=    0.009150491716 / 
&RAMP ID='t', T=    0.009280710042 / 
&RAMP ID='t', T=    0.009410928368 / 
&RAMP ID='t', T=    0.009541146694 / 
&RAMP ID='t', T=    0.009671365020 / 
&RAMP ID='t', T=    0.009801583346 / 
&RAMP ID='t', T=    0.009931801671 / 
&RAMP ID='t', T=    0.010062019997 / 
&RAMP ID='t', T=    0.010192238323 / 
&RAMP ID='t', T=    0.010322456649 / 
&RAMP ID='t', T=    0.010452674975 / 
&RAMP ID='t', T=    0.010582893301 / 
&RAMP ID='t', T=    0.010713111627 / 
&RAMP ID='t', T=    0.010843329953 / 
&RAMP ID='t', T=    0.011038867918 / 
&RAMP ID='t', T=    0.011234405884 / 
&RAMP ID='t', T=    0.011429943849 / 
&RAMP ID='t', T=    0.011625481815 / 
&RAMP ID='t', T=    0.011821019780 / 
&RAMP ID='t', T=    0.012016557746 / 
&RAMP ID='t', T=    0.012212095711 / 
&RAMP ID='t', T=    0.012407633677 / 
&RAMP ID='t', T=    0.012603171642 / 
&RAMP ID='t', T=    0.012798709608 / 
&RAMP ID='t', T=    0.012994247573 / 
&RAMP ID='t', T=    0.013189785539 / 
&RAMP ID='t', T=    0.013385323504 / 
&RAMP ID='t', T=    0.013580861470 / 
&RAMP ID='t', T=    0.013776399435 / 
&RAMP ID='t', T=    0.013971937401 / 
&RAMP ID='t', T=    0.014167475366 / 
&RAMP ID='t', T=    0.014363013332 / 
&RAMP ID='t', T=    0.014558551297 / 
&RAMP ID='t', T=    0.014754089263 / 
&RAMP ID='t', T=    0.014949627228 / 
&RAMP ID='t', T=    0.015145165194 / 
&RAMP ID='t', T=    0.015340703159 / 
&RAMP ID='t', T=    0.015536241125 / 
&RAMP ID='t', T=    0.015731779090 / 
&RAMP ID='t', T=    0.015927317056 / 
&RAMP ID='t', T=    0.016224589613 / 
&RAMP ID='t', T=    0.016521862171 / 
&RAMP ID='t', T=    0.016819134729 / 
&RAMP ID='t', T=    0.017116407287 / 
&RAMP ID='t', T=    0.017413679844 / 
&RAMP ID='t', T=    0.017710952402 / 
&RAMP ID='t', T=    0.018008224960 / 
&RAMP ID='t', T=    0.018305497517 / 
&RAMP ID='t', T=    0.018602770075 / 
&RAMP ID='t', T=    0.018900042633 / 
&RAMP ID='t', T=    0.019197315190 / 
&RAMP ID='t', T=    0.019651646260 / 
&RAMP ID='t', T=    0.020105977330 / 
&RAMP ID='t', T=    0.020560308400 / 
&RAMP ID='t', T=    0.021014639470 / 
&RAMP ID='t', T=    0.021468970539 / 
&RAMP ID='t', T=    0.021923301609 / 
&RAMP ID='t', T=    0.022377632679 / 
&RAMP ID='t', T=    0.022831963749 / 
&RAMP ID='t', T=    0.023286294818 / 
&RAMP ID='t', T=    0.023740625888 / 
&RAMP ID='t', T=    0.024470760413 / 
&RAMP ID='t', T=    0.025200894938 / 
&RAMP ID='t', T=    0.025931029462 / 
&RAMP ID='t', T=    0.026661163987 / 
&RAMP ID='t', T=    0.027391298512 / 
&RAMP ID='t', T=    0.028121433036 / 
&RAMP ID='t', T=    0.028851567561 / 
&RAMP ID='t', T=    0.030100035736 / 
&RAMP ID='t', T=    0.031348503911 / 
&RAMP ID='t', T=    0.032596972086 / 
&RAMP ID='t', T=    0.033845440261 / 
&RAMP ID='t', T=    0.035093908436 / 
&RAMP ID='t', T=    0.036342376611 / 
&RAMP ID='t', T=    0.037590844786 / 
&RAMP ID='t', T=    0.038839312961 / 
&RAMP ID='t', T=    0.040087781136 / 
&RAMP ID='t', T=    0.041336249311 / 
&RAMP ID='t', T=    0.042584717486 / 
&RAMP ID='t', T=    0.043833185661 / 
&RAMP ID='t', T=    0.045081653836 / 
&RAMP ID='t', T=    0.046330122011 / 
&RAMP ID='t', T=    0.047578590186 / 
&RAMP ID='t', T=    0.048827058361 / 
&RAMP ID='t', T=    0.050075526535 / 
&RAMP ID='t', T=    0.051323994710 / 
&RAMP ID='t', T=    0.052572462885 / 
&RAMP ID='t', T=    0.053820931060 / 
&RAMP ID='t', T=    0.054737284013 / 
&RAMP ID='t', T=    0.055653636966 / 
&RAMP ID='t', T=    0.056569989919 / 
&RAMP ID='t', T=    0.057486342872 / 
&RAMP ID='t', T=    0.058402695825 / 
&RAMP ID='t', T=    0.059319048778 / 
&RAMP ID='t', T=    0.060235401731 / 
&RAMP ID='t', T=    0.061151754684 / 
&RAMP ID='t', T=    0.062068107637 / 
&RAMP ID='t', T=    0.062984460590 / 
&RAMP ID='t', T=    0.063900813543 / 
&RAMP ID='t', T=    0.064817166496 / 
&RAMP ID='t', T=    0.065733519449 / 
&RAMP ID='t', T=    0.066649872402 / 
&RAMP ID='t', T=    0.067566225355 / 
&RAMP ID='t', T=    0.068482578308 / 
&RAMP ID='t', T=    0.069398931261 / 
&RAMP ID='t', T=    0.070315284214 / 
&RAMP ID='t', T=    0.071740311827 / 
&RAMP ID='t', T=    0.073165339440 / 
&RAMP ID='t', T=    0.074590367054 / 
&RAMP ID='t', T=    0.076015394667 / 
&RAMP ID='t', T=    0.077440422280 / 
&RAMP ID='t', T=    0.078865449893 / 
&RAMP ID='t', T=    0.080290477507 / 
&RAMP ID='t', T=    0.081715505120 / 
&RAMP ID='t', T=    0.083140532733 / 
&RAMP ID='t', T=    0.084565560346 / 
&RAMP ID='t', T=    0.085990587960 / 
&RAMP ID='t', T=    0.087415615573 / 
&RAMP ID='t', T=    0.088840643186 / 
&RAMP ID='t', T=    0.090265670799 / 
&RAMP ID='t', T=    0.091690698413 / 
&RAMP ID='t', T=    0.093115726026 / 
&RAMP ID='t', T=    0.094540753639 / 
&RAMP ID='t', T=    0.095965781252 / 
&RAMP ID='t', T=    0.097390808866 / 
&RAMP ID='t', T=    0.098815836479 / 
&RAMP ID='t', T=    0.100240864092 / 
&RAMP ID='t', T=    0.101665891705 / 
&RAMP ID='t', T=    0.103090919319 / 
&RAMP ID='t', T=    0.104515946932 / 
&RAMP ID='t', T=    0.105940974545 / 
&RAMP ID='t', T=    0.107366002158 / 
&RAMP ID='t', T=    0.108791029772 / 
&RAMP ID='t', T=    0.109827750197 / 
&RAMP ID='t', T=    0.110864470622 / 
&RAMP ID='t', T=    0.111901191048 / 
&RAMP ID='t', T=    0.112937911473 / 
&RAMP ID='t', T=    0.113974631899 / 
&RAMP ID='t', T=    0.115011352324 / 
&RAMP ID='t', T=    0.116048072749 / 
&RAMP ID='t', T=    0.116803889865 / 
&RAMP ID='t', T=    0.117559706980 / 
&RAMP ID='t', T=    0.118315524095 / 
&RAMP ID='t', T=    0.119071341211 / 
&RAMP ID='t', T=    0.119827158326 / 
&RAMP ID='t', T=    0.120582975441 / 
&RAMP ID='t', T=    0.121338792556 / 
&RAMP ID='t', T=    0.122094609672 / 
&RAMP ID='t', T=    0.122850426787 / 
&RAMP ID='t', T=    0.123606243902 / 
&RAMP ID='t', T=    0.124362061018 / 
&RAMP ID='t', T=    0.125117878133 / 
&RAMP ID='t', T=    0.125873695248 / 
&RAMP ID='t', T=    0.126629512364 / 
&RAMP ID='t', T=    0.127385329479 / 
&RAMP ID='t', T=    0.128141146594 / 
&RAMP ID='t', T=    0.128896963710 / 
&RAMP ID='t', T=    0.129652780825 / 
&RAMP ID='t', T=    0.130820372716 / 
&RAMP ID='t', T=    0.131987964608 / 
&RAMP ID='t', T=    0.133155556500 / 
&RAMP ID='t', T=    0.134323148391 / 
&RAMP ID='t', T=    0.135490740283 / 
&RAMP ID='t', T=    0.136658332174 / 
&RAMP ID='t', T=    0.137825924066 / 
&RAMP ID='t', T=    0.138993515958 / 
&RAMP ID='t', T=    0.140161107849 / 
&RAMP ID='t', T=    0.141328699741 / 
&RAMP ID='t', T=    0.142496291632 / 
&RAMP ID='t', T=    0.143663883524 / 
&RAMP ID='t', T=    0.144831475416 / 
&RAMP ID='t', T=    0.145999067307 / 
&RAMP ID='t', T=    0.147166659199 / 
&RAMP ID='t', T=    0.148334251090 / 
&RAMP ID='t', T=    0.149501842982 / 
&RAMP ID='t', T=    0.150669434874 / 
&RAMP ID='t', T=    0.151837026765 / 
&RAMP ID='t', T=    0.153004618657 / 
&RAMP ID='t', T=    0.154172210548 / 
&RAMP ID='t', T=    0.155339802440 / 
&RAMP ID='t', T=    0.156507394332 / 
&RAMP ID='t', T=    0.157674986223 / 
&RAMP ID='t', T=    0.158842578115 / 
&RAMP ID='t', T=    0.159678000272 / 
&RAMP ID='t', T=    0.160287714899 / 
&RAMP ID='t', T=    0.160897429526 / 
&RAMP ID='t', T=    0.161507144153 / 
&RAMP ID='t', T=    0.162116858780 / 
&RAMP ID='t', T=    0.162726573407 / 
&RAMP ID='t', T=    0.163336288034 / 
&RAMP ID='t', T=    0.163946002661 / 
&RAMP ID='t', T=    0.164374326168 / 
&RAMP ID='t', T=    0.164682963418 / 
&RAMP ID='t', T=    0.164991600667 / 
&RAMP ID='t', T=    0.165300237916 / 
&RAMP ID='t', T=    0.165608875166 / 
&RAMP ID='t', T=    0.165917512415 / 
&RAMP ID='t', T=    0.166226149664 / 
&RAMP ID='t', T=    0.166534786914 / 
&RAMP ID='t', T=    0.166843424163 / 
&RAMP ID='t', T=    0.167152061412 / 
&RAMP ID='t', T=    0.167460698662 / 
&RAMP ID='t', T=    0.167769335911 / 
&RAMP ID='t', T=    0.168244314131 / 
&RAMP ID='t', T=    0.168719292351 / 
&RAMP ID='t', T=    0.169194270572 / 
&RAMP ID='t', T=    0.169669248792 / 
&RAMP ID='t', T=    0.170144227012 / 
&RAMP ID='t', T=    0.170619205233 / 
&RAMP ID='t', T=    0.171094183453 / 
&RAMP ID='t', T=    0.171830840406 / 
&RAMP ID='t', T=    0.172567497359 / 
&RAMP ID='t', T=    0.173304154312 / 
&RAMP ID='t', T=    0.174040811265 / 
&RAMP ID='t', T=    0.174777468218 / 
&RAMP ID='t', T=    0.175514125171 / 
&RAMP ID='t', T=    0.176250782124 / 
&RAMP ID='t', T=    0.176987439077 / 
&RAMP ID='t', T=    0.177724096030 / 
&RAMP ID='t', T=    0.178460752983 / 
&RAMP ID='t', T=    0.179197409936 / 
&RAMP ID='t', T=    0.179934066889 / 
&RAMP ID='t', T=    0.180670723842 / 
&RAMP ID='t', T=    0.181407380795 / 
&RAMP ID='t', T=    0.182144037748 / 
&RAMP ID='t', T=    0.182688621437 / 
&RAMP ID='t', T=    0.183233205127 / 
&RAMP ID='t', T=    0.183777788816 / 
&RAMP ID='t', T=    0.184322372505 / 
&RAMP ID='t', T=    0.184866956194 / 
&RAMP ID='t', T=    0.185411539883 / 
&RAMP ID='t', T=    0.185797798101 / 
&RAMP ID='t', T=    0.186184056318 / 
&RAMP ID='t', T=    0.186570314536 / 
&RAMP ID='t', T=    0.186956572753 / 
&RAMP ID='t', T=    0.187342830971 / 
&RAMP ID='t', T=    0.187729089188 / 
&RAMP ID='t', T=    0.188011641358 / 
&RAMP ID='t', T=    0.188294193529 / 
&RAMP ID='t', T=    0.188576745699 / 
&RAMP ID='t', T=    0.188859297869 / 
&RAMP ID='t', T=    0.189050872214 / 
&RAMP ID='t', T=    0.189191101081 / 
&RAMP ID='t', T=    0.189331329948 / 
&RAMP ID='t', T=    0.189471558815 / 
&RAMP ID='t', T=    0.189611787683 / 
&RAMP ID='t', T=    0.189752016550 / 
&RAMP ID='t', T=    0.189892245417 / 
&RAMP ID='t', T=    0.190032474284 / 
&RAMP ID='t', T=    0.190254163021 / 
&RAMP ID='t', T=    0.190475851758 / 
&RAMP ID='t', T=    0.190697540495 / 
&RAMP ID='t', T=    0.190919229232 / 
&RAMP ID='t', T=    0.191140917969 / 
&RAMP ID='t', T=    0.191362606706 / 
&RAMP ID='t', T=    0.191708752722 / 
&RAMP ID='t', T=    0.192054898739 / 
&RAMP ID='t', T=    0.192401044755 / 
&RAMP ID='t', T=    0.192747190772 / 
&RAMP ID='t', T=    0.193093336788 / 
&RAMP ID='t', T=    0.193439482804 / 
&RAMP ID='t', T=    0.193785628821 / 
&RAMP ID='t', T=    0.194131774837 / 
&RAMP ID='t', T=    0.194477920854 / 
&RAMP ID='t', T=    0.195001815124 / 
&RAMP ID='t', T=    0.195525709394 / 
&RAMP ID='t', T=    0.196049603664 / 
&RAMP ID='t', T=    0.196573497934 / 
&RAMP ID='t', T=    0.197097392204 / 
&RAMP ID='t', T=    0.197621286474 / 
&RAMP ID='t', T=    0.198145180744 / 
&RAMP ID='t', T=    0.198669075014 / 
&RAMP ID='t', T=    0.199192969284 / 
&RAMP ID='t', T=    0.199716863554 / 
&RAMP ID='t', T=    0.200240757824 / 
&RAMP ID='t', T=    0.200764652094 / 
&RAMP ID='t', T=    0.201149741349 / 
&RAMP ID='t', T=    0.201534830604 / 
&RAMP ID='t', T=    0.201919919858 / 
&RAMP ID='t', T=    0.202305009113 / 
&RAMP ID='t', T=    0.202690098368 / 
&RAMP ID='t', T=    0.203075187623 / 
&RAMP ID='t', T=    0.203460276878 / 
&RAMP ID='t', T=    0.203845366133 / 
&RAMP ID='t', T=    0.204230455388 / 
&RAMP ID='t', T=    0.204615544643 / 
&RAMP ID='t', T=    0.204899027510 / 
&RAMP ID='t', T=    0.205182510377 / 
&RAMP ID='t', T=    0.205465993244 / 
&RAMP ID='t', T=    0.205749476111 / 
&RAMP ID='t', T=    0.205956919217 / 
&RAMP ID='t', T=    0.206164362323 / 
&RAMP ID='t', T=    0.206371805429 / 
&RAMP ID='t', T=    0.206579248535 / 
&RAMP ID='t', T=    0.206786691641 / 
&RAMP ID='t', T=    0.206994134747 / 
&RAMP ID='t', T=    0.207201577853 / 
&RAMP ID='t', T=    0.207409020959 / 
&RAMP ID='t', T=    0.207616464064 / 
&RAMP ID='t', T=    0.207823907170 / 
&RAMP ID='t', T=    0.207962435834 / 
&RAMP ID='t', T=    0.208100964497 / 
&RAMP ID='t', T=    0.208239493161 / 
&RAMP ID='t', T=    0.208378021824 / 
&RAMP ID='t', T=    0.208516550488 / 
&RAMP ID='t', T=    0.208655079151 / 
&RAMP ID='t', T=    0.208793607815 / 
&RAMP ID='t', T=    0.208932136478 / 
&RAMP ID='t', T=    0.209070665142 / 
&RAMP ID='t', T=    0.209209193805 / 
&RAMP ID='t', T=    0.209347722469 / 
&RAMP ID='t', T=    0.209486251132 / 
&RAMP ID='t', T=    0.209624779796 / 
&RAMP ID='t', T=    0.209763308459 / 
&RAMP ID='t', T=    0.209901837123 / 
&RAMP ID='t', T=    0.210137629837 / 
&RAMP ID='t', T=    0.210373422550 / 
&RAMP ID='t', T=    0.210609215264 / 
&RAMP ID='t', T=    0.210845007977 / 
&RAMP ID='t', T=    0.211080800691 / 
&RAMP ID='t', T=    0.211316593404 / 
&RAMP ID='t', T=    0.211552386118 / 
&RAMP ID='t', T=    0.211788178832 / 
&RAMP ID='t', T=    0.212023971545 / 
&RAMP ID='t', T=    0.212259764259 / 
&RAMP ID='t', T=    0.212495556972 / 
&RAMP ID='t', T=    0.212731349686 / 
&RAMP ID='t', T=    0.212967142399 / 
&RAMP ID='t', T=    0.213202935113 / 
&RAMP ID='t', T=    0.213438727827 / 
&RAMP ID='t', T=    0.213674520540 / 
&RAMP ID='t', T=    0.213910313254 / 
&RAMP ID='t', T=    0.214146105967 / 
&RAMP ID='t', T=    0.214381898681 / 
&RAMP ID='t', T=    0.214617691394 / 
&RAMP ID='t', T=    0.214853484108 / 
&RAMP ID='t', T=    0.215089276822 / 
&RAMP ID='t', T=    0.215325069535 / 
&RAMP ID='t', T=    0.215560862249 / 
&RAMP ID='t', T=    0.215796654962 / 
&RAMP ID='t', T=    0.216032447676 / 
&RAMP ID='t', T=    0.216268240389 / 
&RAMP ID='t', T=    0.216504033103 / 
&RAMP ID='t', T=    0.216739825817 / 
&RAMP ID='t', T=    0.216975618530 / 
&RAMP ID='t', T=    0.217211411244 / 
&RAMP ID='t', T=    0.217447203957 / 
&RAMP ID='t', T=    0.217614925062 / 
&RAMP ID='t', T=    0.217739270006 / 
&RAMP ID='t', T=    0.217863614949 / 
&RAMP ID='t', T=    0.217987959893 / 
&RAMP ID='t', T=    0.218112304837 / 
&RAMP ID='t', T=    0.218236649781 / 
&RAMP ID='t', T=    0.218360994724 / 
&RAMP ID='t', T=    0.218449573436 / 
&RAMP ID='t', T=    0.218514377359 / 
&RAMP ID='t', T=    0.218579181281 / 
&RAMP ID='t', T=    0.218643985203 / 
&RAMP ID='t', T=    0.218708789125 / 
&RAMP ID='t', T=    0.218773593047 / 
&RAMP ID='t', T=    0.218838396969 / 
&RAMP ID='t', T=    0.218903200892 / 
&RAMP ID='t', T=    0.219011607221 / 
&RAMP ID='t', T=    0.219120013550 / 
&RAMP ID='t', T=    0.219228419879 / 
&RAMP ID='t', T=    0.219336826208 / 
&RAMP ID='t', T=    0.219445232537 / 
&RAMP ID='t', T=    0.219553638867 / 
&RAMP ID='t', T=    0.219662045196 / 
&RAMP ID='t', T=    0.219850701626 / 
&RAMP ID='t', T=    0.220039358056 / 
&RAMP ID='t', T=    0.220228014486 / 
&RAMP ID='t', T=    0.220416670916 / 
&RAMP ID='t', T=    0.220605327346 / 
&RAMP ID='t', T=    0.220793983776 / 
&RAMP ID='t', T=    0.220982640206 / 
&RAMP ID='t', T=    0.221171296637 / 
&RAMP ID='t', T=    0.221359953067 / 
&RAMP ID='t', T=    0.221548609497 / 
&RAMP ID='t', T=    0.221737265927 / 
&RAMP ID='t', T=    0.221925922357 / 
&RAMP ID='t', T=    0.222114578787 / 
&RAMP ID='t', T=    0.222303235217 / 
&RAMP ID='t', T=    0.222491891647 / 
&RAMP ID='t', T=    0.222680548077 / 
&RAMP ID='t', T=    0.222869204508 / 
&RAMP ID='t', T=    0.223057860938 / 
&RAMP ID='t', T=    0.223197145862 / 
&RAMP ID='t', T=    0.223298921776 / 
&RAMP ID='t', T=    0.223400697689 / 
&RAMP ID='t', T=    0.223502473603 / 
&RAMP ID='t', T=    0.223604249516 / 
&RAMP ID='t', T=    0.223706025430 / 
&RAMP ID='t', T=    0.223774427714 / 
&RAMP ID='t', T=    0.223819838402 / 
&RAMP ID='t', T=    0.223851061285 / 
&RAMP ID='t', T=    0.223873624014 / 
&RAMP ID='t', T=    0.223896186743 / 
&RAMP ID='t', T=    0.223918749472 / 
&RAMP ID='t', T=    0.223941312201 / 
&RAMP ID='t', T=    0.223963874930 / 
&RAMP ID='t', T=    0.223980371128 / 
&RAMP ID='t', T=    0.223992434708 / 
&RAMP ID='t', T=    0.224004498288 / 
&RAMP ID='t', T=    0.224016561868 / 
&RAMP ID='t', T=    0.224028625449 / 
&RAMP ID='t', T=    0.224040689029 / 
&RAMP ID='t', T=    0.224052752609 / 
&RAMP ID='t', T=    0.224061333172 / 
&RAMP ID='t', T=    0.224067352938 / 
&RAMP ID='t', T=    0.224071737994 / 
&RAMP ID='t', T=    0.224076123050 / 
&RAMP ID='t', T=    0.224080508106 / 
&RAMP ID='t', T=    0.224084893162 / 
&RAMP ID='t', T=    0.224089278218 / 
&RAMP ID='t', T=    0.224093663274 / 
&RAMP ID='t', T=    0.224098048330 / 
&RAMP ID='t', T=    0.224102433386 / 
&RAMP ID='t', T=    0.224106818442 / 
&RAMP ID='t', T=    0.224111203498 / 
&RAMP ID='t', T=    0.224115588554 / 
&RAMP ID='t', T=    0.224123813007 / 
&RAMP ID='t', T=    0.224132037460 / 
&RAMP ID='t', T=    0.224140261912 / 
&RAMP ID='t', T=    0.224148486365 / 
&RAMP ID='t', T=    0.224164423189 / 
&RAMP ID='t', T=    0.224190885807 / 
&RAMP ID='t', T=    0.224217348425 / 
&RAMP ID='t', T=    0.224243811044 / 
&RAMP ID='t', T=    0.224270273662 / 
&RAMP ID='t', T=    0.224323116777 / 
&RAMP ID='t', T=    0.224422374761 / 
&RAMP ID='t', T=    0.224521632745 / 
&RAMP ID='t', T=    0.224620890729 / 
&RAMP ID='t', T=    0.224720148713 / 
&RAMP ID='t', T=    0.224819406697 / 
&RAMP ID='t', T=    0.224918664681 / 
&RAMP ID='t', T=    0.225017922665 / 
&RAMP ID='t', T=    0.225117180648 / 
&RAMP ID='t', T=    0.225216438632 / 
&RAMP ID='t', T=    0.225315696616 / 
&RAMP ID='t', T=    0.225414954600 / 
&RAMP ID='t', T=    0.225514212584 / 
&RAMP ID='t', T=    0.225613470568 / 
&RAMP ID='t', T=    0.225712728552 / 
&RAMP ID='t', T=    0.225811986536 / 
&RAMP ID='t', T=    0.225911244520 / 
&RAMP ID='t', T=    0.226010502504 / 
&RAMP ID='t', T=    0.226109760488 / 
&RAMP ID='t', T=    0.226209018472 / 
&RAMP ID='t', T=    0.226308276456 / 
&RAMP ID='t', T=    0.226407534440 / 
&RAMP ID='t', T=    0.226506792424 / 
&RAMP ID='t', T=    0.226606050408 / 
&RAMP ID='t', T=    0.226705308392 / 
&RAMP ID='t', T=    0.226804566376 / 
&RAMP ID='t', T=    0.226903824360 / 
&RAMP ID='t', T=    0.227003082344 / 
&RAMP ID='t', T=    0.227102340327 / 
&RAMP ID='t', T=    0.227201598311 / 
&RAMP ID='t', T=    0.227300856295 / 
&RAMP ID='t', T=    0.227400114279 / 
&RAMP ID='t', T=    0.227499372263 / 
&RAMP ID='t', T=    0.227568695811 / 
&RAMP ID='t', T=    0.227638019359 / 
&RAMP ID='t', T=    0.227707342907 / 
&RAMP ID='t', T=    0.227776666455 / 
&RAMP ID='t', T=    0.227845990003 / 
&RAMP ID='t', T=    0.227915313551 / 
&RAMP ID='t', T=    0.227984637099 / 
&RAMP ID='t', T=    0.228053960647 / 
&RAMP ID='t', T=    0.228123284194 / 
&RAMP ID='t', T=    0.228192607742 / 
&RAMP ID='t', T=    0.228261931290 / 
&RAMP ID='t', T=    0.228331254838 / 
&RAMP ID='t', T=    0.228400578386 / 
&RAMP ID='t', T=    0.228469901934 / 
&RAMP ID='t', T=    0.228539225482 / 
&RAMP ID='t', T=    0.228608549030 / 
&RAMP ID='t', T=    0.228677872578 / 
&RAMP ID='t', T=    0.228747196126 / 
&RAMP ID='t', T=    0.228816519674 / 
&RAMP ID='t', T=    0.228885843221 / 
&RAMP ID='t', T=    0.228955166769 / 
&RAMP ID='t', T=    0.229024490317 / 
&RAMP ID='t', T=    0.229093813865 / 
&RAMP ID='t', T=    0.229163137413 / 
&RAMP ID='t', T=    0.229232460961 / 
&RAMP ID='t', T=    0.229301784509 / 
&RAMP ID='t', T=    0.229371108057 / 
&RAMP ID='t', T=    0.229440431605 / 
&RAMP ID='t', T=    0.229509755153 / 
&RAMP ID='t', T=    0.229579078701 / 
&RAMP ID='t', T=    0.229648402248 / 
&RAMP ID='t', T=    0.229717725796 / 
&RAMP ID='t', T=    0.229787049344 / 
&RAMP ID='t', T=    0.229835465770 / 
&RAMP ID='t', T=    0.229883882195 / 
&RAMP ID='t', T=    0.229932298621 / 
&RAMP ID='t', T=    0.229980715047 / 
&RAMP ID='t', T=    0.230029131472 / 
&RAMP ID='t', T=    0.230061976771 / 
&RAMP ID='t', T=    0.230084789009 / 
&RAMP ID='t', T=    0.230107601247 / 
&RAMP ID='t', T=    0.230130413485 / 
&RAMP ID='t', T=    0.230153225723 / 
&RAMP ID='t', T=    0.230176037961 / 
&RAMP ID='t', T=    0.230198850199 / 
&RAMP ID='t', T=    0.230221662437 / 
&RAMP ID='t', T=    0.230244474675 / 
&RAMP ID='t', T=    0.230267286912 / 
&RAMP ID='t', T=    0.230290099150 / 
&RAMP ID='t', T=    0.230326135923 / 
&RAMP ID='t', T=    0.230362172696 / 
&RAMP ID='t', T=    0.230398209469 / 
&RAMP ID='t', T=    0.230434246242 / 
&RAMP ID='t', T=    0.230470283014 / 
&RAMP ID='t', T=    0.230506319787 / 
&RAMP ID='t', T=    0.230542356560 / 
&RAMP ID='t', T=    0.230578393333 / 
&RAMP ID='t', T=    0.230614430106 / 
&RAMP ID='t', T=    0.230650466879 / 
&RAMP ID='t', T=    0.230686503651 / 
&RAMP ID='t', T=    0.230722540424 / 
&RAMP ID='t', T=    0.230758577197 / 
&RAMP ID='t', T=    0.230794613970 / 
&RAMP ID='t', T=    0.230830650743 / 
&RAMP ID='t', T=    0.230866687516 / 
&RAMP ID='t', T=    0.230902724288 / 
&RAMP ID='t', T=    0.230938761061 / 
&RAMP ID='t', T=    0.230974797834 / 
&RAMP ID='t', T=    0.231010834607 / 
&RAMP ID='t', T=    0.231046871380 / 
&RAMP ID='t', T=    0.231082908153 / 
&RAMP ID='t', T=    0.231118944925 / 
&RAMP ID='t', T=    0.231154981698 / 
&RAMP ID='t', T=    0.231191018471 / 
&RAMP ID='t', T=    0.231227055244 / 
&RAMP ID='t', T=    0.231263092017 / 
&RAMP ID='t', T=    0.231299128790 / 
&RAMP ID='t', T=    0.231335165562 / 
&RAMP ID='t', T=    0.231371202335 / 
&RAMP ID='t', T=    0.231407239108 / 
&RAMP ID='t', T=    0.231443275881 / 
&RAMP ID='t', T=    0.231479312654 / 
&RAMP ID='t', T=    0.231534346596 / 
&RAMP ID='t', T=    0.231589380539 / 
&RAMP ID='t', T=    0.231644414481 / 
&RAMP ID='t', T=    0.231699448424 / 
&RAMP ID='t', T=    0.231754482366 / 
&RAMP ID='t', T=    0.231809516309 / 
&RAMP ID='t', T=    0.231864550251 / 
&RAMP ID='t', T=    0.231919584194 / 
&RAMP ID='t', T=    0.231974618137 / 
&RAMP ID='t', T=    0.232029652079 / 
&RAMP ID='t', T=    0.232084686022 / 
&RAMP ID='t', T=    0.232125261813 / 
&RAMP ID='t', T=    0.232154819763 / 
&RAMP ID='t', T=    0.232184377714 / 
&RAMP ID='t', T=    0.232213935665 / 
&RAMP ID='t', T=    0.232243493615 / 
&RAMP ID='t', T=    0.232273051566 / 
&RAMP ID='t', T=    0.232292389514 / 
&RAMP ID='t', T=    0.232304921297 / 
&RAMP ID='t', T=    0.232313377608 / 
&RAMP ID='t', T=    0.232319424224 / 
&RAMP ID='t', T=    0.232325470841 / 
&RAMP ID='t', T=    0.232331517458 / 
&RAMP ID='t', T=    0.232337564074 / 
&RAMP ID='t', T=    0.232343610691 / 
&RAMP ID='t', T=    0.232349657307 / 
&RAMP ID='t', T=    0.232355703924 / 
&RAMP ID='t', T=    0.232361750540 / 
&RAMP ID='t', T=    0.232367797157 / 
&RAMP ID='t', T=    0.232372242527 / 
&RAMP ID='t', T=    0.232375460000 / 
&RAMP ID='t', T=    0.232378677473 / 
&RAMP ID='t', T=    0.232381894946 / 
&RAMP ID='t', T=    0.232385112419 / 
&RAMP ID='t', T=    0.232388329892 / 
&RAMP ID='t', T=    0.232391547365 / 
&RAMP ID='t', T=    0.232394764838 / 
&RAMP ID='t', T=    0.232397982311 / 
&RAMP ID='t', T=    0.232401199784 / 
&RAMP ID='t', T=    0.232404417257 / 
&RAMP ID='t', T=    0.232406661934 / 
&RAMP ID='t', T=    0.232408236614 / 
&RAMP ID='t', T=    0.232409811295 / 
&RAMP ID='t', T=    0.232411385975 / 
&RAMP ID='t', T=    0.232412960655 / 
&RAMP ID='t', T=    0.232414535336 / 
&RAMP ID='t', T=    0.232416110016 / 
&RAMP ID='t', T=    0.232417684696 / 
&RAMP ID='t', T=    0.232419259376 / 
&RAMP ID='t', T=    0.232420834057 / 
&RAMP ID='t', T=    0.232422408737 / 
&RAMP ID='t', T=    0.232423983417 / 
&RAMP ID='t', T=    0.232425558098 / 
&RAMP ID='t', T=    0.232427132778 / 
&RAMP ID='t', T=    0.232428707458 / 
&RAMP ID='t', T=    0.232430282139 / 
&RAMP ID='t', T=    0.232431856819 / 
&RAMP ID='t', T=    0.232434228158 / 
&RAMP ID='t', T=    0.232436599497 / 
&RAMP ID='t', T=    0.232438970836 / 
&RAMP ID='t', T=    0.232441342175 / 
&RAMP ID='t', T=    0.232443713515 / 
&RAMP ID='t', T=    0.232448417657 / 
&RAMP ID='t', T=    0.232453121800 / 
&RAMP ID='t', T=    0.232457825942 / 