&HEAD CHID='ign_delay_Methane_grimech30_T1200K_Phi1p4', TITLE='ign_delay Methane_grimech30 T=1200K Phi=1.4' /

&MISC GVEC(3)=0.0, NOISE=F, STRATIFICATION=F, SIMULATION_MODE='DNS' /

&RADI RADIATION=F/
&SURF ID='DEF',DEFAULT=T,ADIABATIC=T/

&COMB ODE_SOLVER='CVODE',ODE_MIN_ATOL=1E-15,ODE_REL_ERROR=1E-9,ZZ_MIN_GLOBAL=1E-15 /
&TIME T_END=10, RAMP_TIME='t' /
&DUMP DT_DEVC=1e-20/

&CATF OTHER_FILES='../../Utilities/Input_Libraries/Chemical_Mechanisms/FDS/Methane_grimech30.fds' /

&MESH IJK=5,1,5, XB=0.0,1.0,0.0,0.2,0.0,1.0 /
&OBST XB=0.0,1.0,0.0,0.2,0.0,1.0/
&HOLE XB=0.4,0.6,-1.0,1.0,0.4,0.6/
&INIT XB=0.4,0.6,-1.0,1.0,0.4,0.6, MASS_FRACTION(1)=0.21538665, SPEC_ID(1)='O2',MASS_FRACTION(2)=0.07559265,SPEC_ID(2)='CH4',  TEMPERATURE=926.85 /
&DEVC XYZ=0.5,0.0,0.5, QUANTITY='MASS FRACTION', SPEC_ID='OH',  ID='OH' /
&DEVC XYZ=0.5,0.0,0.5, QUANTITY='TEMPERATURE', ID='TMP'/

&RAMP ID='t', T=    0.000000002430 / 
&RAMP ID='t', T=    0.000000026727 / 
&RAMP ID='t', T=    0.000000051023 / 
&RAMP ID='t', T=    0.000000091211 / 
&RAMP ID='t', T=    0.000000156722 / 
&RAMP ID='t', T=    0.000000222233 / 
&RAMP ID='t', T=    0.000000320928 / 
&RAMP ID='t', T=    0.000000419624 / 
&RAMP ID='t', T=    0.000000518320 / 
&RAMP ID='t', T=    0.000000676771 / 
&RAMP ID='t', T=    0.000000835222 / 
&RAMP ID='t', T=    0.000000993673 / 
&RAMP ID='t', T=    0.000001152124 / 
&RAMP ID='t', T=    0.000001310575 / 
&RAMP ID='t', T=    0.000001469026 / 
&RAMP ID='t', T=    0.000001627477 / 
&RAMP ID='t', T=    0.000001873454 / 
&RAMP ID='t', T=    0.000002119431 / 
&RAMP ID='t', T=    0.000002365408 / 
&RAMP ID='t', T=    0.000002611385 / 
&RAMP ID='t', T=    0.000002857362 / 
&RAMP ID='t', T=    0.000003103339 / 
&RAMP ID='t', T=    0.000003349316 / 
&RAMP ID='t', T=    0.000003595293 / 
&RAMP ID='t', T=    0.000003981582 / 
&RAMP ID='t', T=    0.000004367870 / 
&RAMP ID='t', T=    0.000004754159 / 
&RAMP ID='t', T=    0.000005140447 / 
&RAMP ID='t', T=    0.000005746654 / 
&RAMP ID='t', T=    0.000006352862 / 
&RAMP ID='t', T=    0.000006959069 / 
&RAMP ID='t', T=    0.000007565276 / 
&RAMP ID='t', T=    0.000008171484 / 
&RAMP ID='t', T=    0.000009214842 / 
&RAMP ID='t', T=    0.000010258200 / 
&RAMP ID='t', T=    0.000011301558 / 
&RAMP ID='t', T=    0.000012344916 / 
&RAMP ID='t', T=    0.000013978996 / 
&RAMP ID='t', T=    0.000015613076 / 
&RAMP ID='t', T=    0.000018084120 / 
&RAMP ID='t', T=    0.000020555164 / 
&RAMP ID='t', T=    0.000024444205 / 
&RAMP ID='t', T=    0.000028333245 / 
&RAMP ID='t', T=    0.000032222285 / 
&RAMP ID='t', T=    0.000036111325 / 
&RAMP ID='t', T=    0.000040000366 / 
&RAMP ID='t', T=    0.000043889406 / 
&RAMP ID='t', T=    0.000050963090 / 
&RAMP ID='t', T=    0.000058036774 / 
&RAMP ID='t', T=    0.000065110457 / 
&RAMP ID='t', T=    0.000072184141 / 
&RAMP ID='t', T=    0.000079257825 / 
&RAMP ID='t', T=    0.000086331509 / 
&RAMP ID='t', T=    0.000093405192 / 
&RAMP ID='t', T=    0.000100478876 / 
&RAMP ID='t', T=    0.000111108288 / 
&RAMP ID='t', T=    0.000121737699 / 
&RAMP ID='t', T=    0.000132367111 / 
&RAMP ID='t', T=    0.000142996522 / 
&RAMP ID='t', T=    0.000153625934 / 
&RAMP ID='t', T=    0.000164255345 / 
&RAMP ID='t', T=    0.000174884757 / 
&RAMP ID='t', T=    0.000185514169 / 
&RAMP ID='t', T=    0.000196143580 / 
&RAMP ID='t', T=    0.000213009568 / 
&RAMP ID='t', T=    0.000229875556 / 
&RAMP ID='t', T=    0.000246741544 / 
&RAMP ID='t', T=    0.000263607532 / 
&RAMP ID='t', T=    0.000280473520 / 
&RAMP ID='t', T=    0.000297339508 / 
&RAMP ID='t', T=    0.000314205496 / 
&RAMP ID='t', T=    0.000331071484 / 
&RAMP ID='t', T=    0.000347937472 / 
&RAMP ID='t', T=    0.000364803460 / 
&RAMP ID='t', T=    0.000381669448 / 
&RAMP ID='t', T=    0.000398535436 / 
&RAMP ID='t', T=    0.000415401424 / 
&RAMP ID='t', T=    0.000432267411 / 
&RAMP ID='t', T=    0.000449133399 / 
&RAMP ID='t', T=    0.000465999387 / 
&RAMP ID='t', T=    0.000482865375 / 
&RAMP ID='t', T=    0.000499731363 / 
&RAMP ID='t', T=    0.000516597351 / 
&RAMP ID='t', T=    0.000533463339 / 
&RAMP ID='t', T=    0.000550329327 / 
&RAMP ID='t', T=    0.000567195315 / 
&RAMP ID='t', T=    0.000584061303 / 
&RAMP ID='t', T=    0.000600927291 / 
&RAMP ID='t', T=    0.000617793279 / 
&RAMP ID='t', T=    0.000643257061 / 
&RAMP ID='t', T=    0.000668720843 / 
&RAMP ID='t', T=    0.000694184624 / 
&RAMP ID='t', T=    0.000719648406 / 
&RAMP ID='t', T=    0.000745112188 / 
&RAMP ID='t', T=    0.000770575970 / 
&RAMP ID='t', T=    0.000796039752 / 
&RAMP ID='t', T=    0.000821503534 / 
&RAMP ID='t', T=    0.000846967315 / 
&RAMP ID='t', T=    0.000872431097 / 
&RAMP ID='t', T=    0.000897894879 / 
&RAMP ID='t', T=    0.000923358661 / 
&RAMP ID='t', T=    0.000948822443 / 
&RAMP ID='t', T=    0.000974286225 / 
&RAMP ID='t', T=    0.000999750006 / 
&RAMP ID='t', T=    0.001025213788 / 
&RAMP ID='t', T=    0.001050677570 / 
&RAMP ID='t', T=    0.001076141352 / 
&RAMP ID='t', T=    0.001101605134 / 
&RAMP ID='t', T=    0.001127068916 / 
&RAMP ID='t', T=    0.001152532697 / 
&RAMP ID='t', T=    0.001177996479 / 
&RAMP ID='t', T=    0.001203460261 / 
&RAMP ID='t', T=    0.001228924043 / 
&RAMP ID='t', T=    0.001254387825 / 
&RAMP ID='t', T=    0.001279851607 / 
&RAMP ID='t', T=    0.001305315388 / 
&RAMP ID='t', T=    0.001330779170 / 
&RAMP ID='t', T=    0.001356242952 / 
&RAMP ID='t', T=    0.001381706734 / 
&RAMP ID='t', T=    0.001407170516 / 
&RAMP ID='t', T=    0.001432634297 / 
&RAMP ID='t', T=    0.001458098079 / 
&RAMP ID='t', T=    0.001483561861 / 
&RAMP ID='t', T=    0.001509025643 / 
&RAMP ID='t', T=    0.001534489425 / 
&RAMP ID='t', T=    0.001559953207 / 
&RAMP ID='t', T=    0.001585416988 / 
&RAMP ID='t', T=    0.001610880770 / 
&RAMP ID='t', T=    0.001636344552 / 
&RAMP ID='t', T=    0.001661808334 / 
&RAMP ID='t', T=    0.001687272116 / 
&RAMP ID='t', T=    0.001712735898 / 
&RAMP ID='t', T=    0.001738199679 / 
&RAMP ID='t', T=    0.001763663461 / 
&RAMP ID='t', T=    0.001789127243 / 
&RAMP ID='t', T=    0.001814591025 / 
&RAMP ID='t', T=    0.001840054807 / 
&RAMP ID='t', T=    0.001865518589 / 
&RAMP ID='t', T=    0.001890982370 / 
&RAMP ID='t', T=    0.001916446152 / 
&RAMP ID='t', T=    0.001941909934 / 
&RAMP ID='t', T=    0.001967373716 / 
&RAMP ID='t', T=    0.001992837498 / 
&RAMP ID='t', T=    0.002018301280 / 
&RAMP ID='t', T=    0.002043765061 / 
&RAMP ID='t', T=    0.002069228843 / 
&RAMP ID='t', T=    0.002094692625 / 
&RAMP ID='t', T=    0.002133546800 / 
&RAMP ID='t', T=    0.002172400975 / 
&RAMP ID='t', T=    0.002211255151 / 
&RAMP ID='t', T=    0.002250109326 / 
&RAMP ID='t', T=    0.002288963501 / 
&RAMP ID='t', T=    0.002327817676 / 
&RAMP ID='t', T=    0.002366671851 / 
&RAMP ID='t', T=    0.002405526027 / 
&RAMP ID='t', T=    0.002444380202 / 
&RAMP ID='t', T=    0.002483234377 / 
&RAMP ID='t', T=    0.002522088552 / 
&RAMP ID='t', T=    0.002560942727 / 
&RAMP ID='t', T=    0.002599796903 / 
&RAMP ID='t', T=    0.002638651078 / 
&RAMP ID='t', T=    0.002677505253 / 
&RAMP ID='t', T=    0.002716359428 / 
&RAMP ID='t', T=    0.002755213603 / 
&RAMP ID='t', T=    0.002794067779 / 
&RAMP ID='t', T=    0.002832921954 / 
&RAMP ID='t', T=    0.002871776129 / 
&RAMP ID='t', T=    0.002910630304 / 
&RAMP ID='t', T=    0.002949484480 / 
&RAMP ID='t', T=    0.002988338655 / 
&RAMP ID='t', T=    0.003027192830 / 
&RAMP ID='t', T=    0.003066047005 / 
&RAMP ID='t', T=    0.003104901180 / 
&RAMP ID='t', T=    0.003143755356 / 
&RAMP ID='t', T=    0.003182609531 / 
&RAMP ID='t', T=    0.003221463706 / 
&RAMP ID='t', T=    0.003260317881 / 
&RAMP ID='t', T=    0.003299172056 / 
&RAMP ID='t', T=    0.003338026232 / 
&RAMP ID='t', T=    0.003376880407 / 
&RAMP ID='t', T=    0.003415734582 / 
&RAMP ID='t', T=    0.003474774863 / 
&RAMP ID='t', T=    0.003533815144 / 
&RAMP ID='t', T=    0.003592855425 / 
&RAMP ID='t', T=    0.003651895706 / 
&RAMP ID='t', T=    0.003710935988 / 
&RAMP ID='t', T=    0.003769976269 / 
&RAMP ID='t', T=    0.003829016550 / 
&RAMP ID='t', T=    0.003888056831 / 
&RAMP ID='t', T=    0.003947097112 / 
&RAMP ID='t', T=    0.004006137393 / 
&RAMP ID='t', T=    0.004065177674 / 
&RAMP ID='t', T=    0.004124217955 / 
&RAMP ID='t', T=    0.004183258236 / 
&RAMP ID='t', T=    0.004242298517 / 
&RAMP ID='t', T=    0.004301338799 / 
&RAMP ID='t', T=    0.004360379080 / 
&RAMP ID='t', T=    0.004419419361 / 
&RAMP ID='t', T=    0.004478459642 / 
&RAMP ID='t', T=    0.004537499923 / 
&RAMP ID='t', T=    0.004596540204 / 
&RAMP ID='t', T=    0.004655580485 / 
&RAMP ID='t', T=    0.004714620766 / 
&RAMP ID='t', T=    0.004773661047 / 
&RAMP ID='t', T=    0.004832701329 / 
&RAMP ID='t', T=    0.004891741610 / 
&RAMP ID='t', T=    0.004950781891 / 
&RAMP ID='t', T=    0.005009822172 / 
&RAMP ID='t', T=    0.005068862453 / 
&RAMP ID='t', T=    0.005127902734 / 
&RAMP ID='t', T=    0.005186943015 / 
&RAMP ID='t', T=    0.005276665088 / 
&RAMP ID='t', T=    0.005366387162 / 
&RAMP ID='t', T=    0.005456109235 / 
&RAMP ID='t', T=    0.005545831308 / 
&RAMP ID='t', T=    0.005635553381 / 
&RAMP ID='t', T=    0.005725275454 / 
&RAMP ID='t', T=    0.005814997527 / 
&RAMP ID='t', T=    0.005904719601 / 
&RAMP ID='t', T=    0.005994441674 / 
&RAMP ID='t', T=    0.006084163747 / 
&RAMP ID='t', T=    0.006173885820 / 
&RAMP ID='t', T=    0.006263607893 / 
&RAMP ID='t', T=    0.006353329967 / 
&RAMP ID='t', T=    0.006443052040 / 
&RAMP ID='t', T=    0.006532774113 / 
&RAMP ID='t', T=    0.006622496186 / 
&RAMP ID='t', T=    0.006712218259 / 
&RAMP ID='t', T=    0.006801940332 / 
&RAMP ID='t', T=    0.006891662406 / 
&RAMP ID='t', T=    0.007028092634 / 
&RAMP ID='t', T=    0.007164522863 / 
&RAMP ID='t', T=    0.007300953092 / 
&RAMP ID='t', T=    0.007437383321 / 
&RAMP ID='t', T=    0.007573813550 / 
&RAMP ID='t', T=    0.007710243779 / 
&RAMP ID='t', T=    0.007846674007 / 
&RAMP ID='t', T=    0.007983104236 / 
&RAMP ID='t', T=    0.008119534465 / 
&RAMP ID='t', T=    0.008255964694 / 
&RAMP ID='t', T=    0.008392394923 / 
&RAMP ID='t', T=    0.008604859027 / 
&RAMP ID='t', T=    0.008817323131 / 
&RAMP ID='t', T=    0.009029787236 / 
&RAMP ID='t', T=    0.009242251340 / 
&RAMP ID='t', T=    0.009454715444 / 
&RAMP ID='t', T=    0.009667179549 / 
&RAMP ID='t', T=    0.009986029132 / 
&RAMP ID='t', T=    0.010304878715 / 
&RAMP ID='t', T=    0.010623728298 / 
&RAMP ID='t', T=    0.010942577880 / 
&RAMP ID='t', T=    0.011261427463 / 
&RAMP ID='t', T=    0.011580277046 / 
&RAMP ID='t', T=    0.011899126629 / 
&RAMP ID='t', T=    0.012217976212 / 
&RAMP ID='t', T=    0.012536825795 / 
&RAMP ID='t', T=    0.012855675378 / 
&RAMP ID='t', T=    0.013174524961 / 
&RAMP ID='t', T=    0.013493374544 / 
&RAMP ID='t', T=    0.013812224127 / 
&RAMP ID='t', T=    0.014131073710 / 
&RAMP ID='t', T=    0.014449923293 / 
&RAMP ID='t', T=    0.014768772876 / 
&RAMP ID='t', T=    0.015087622459 / 
&RAMP ID='t', T=    0.015406472042 / 
&RAMP ID='t', T=    0.015725321625 / 
&RAMP ID='t', T=    0.016044171207 / 
&RAMP ID='t', T=    0.016363020790 / 
&RAMP ID='t', T=    0.016681870373 / 
&RAMP ID='t', T=    0.017000719956 / 
&RAMP ID='t', T=    0.017319569539 / 
&RAMP ID='t', T=    0.017638419122 / 
&RAMP ID='t', T=    0.017957268705 / 
&RAMP ID='t', T=    0.018276118288 / 
&RAMP ID='t', T=    0.018594967871 / 
&RAMP ID='t', T=    0.018913817454 / 
&RAMP ID='t', T=    0.019232667037 / 
&RAMP ID='t', T=    0.019551516620 / 
&RAMP ID='t', T=    0.019870366203 / 
&RAMP ID='t', T=    0.020189215786 / 
&RAMP ID='t', T=    0.020508065369 / 
&RAMP ID='t', T=    0.020734304216 / 
&RAMP ID='t', T=    0.020900674832 / 
&RAMP ID='t', T=    0.021067045447 / 
&RAMP ID='t', T=    0.021233416063 / 
&RAMP ID='t', T=    0.021399786678 / 
&RAMP ID='t', T=    0.021566157293 / 
&RAMP ID='t', T=    0.021732527909 / 
&RAMP ID='t', T=    0.021898898524 / 
&RAMP ID='t', T=    0.022065269140 / 
&RAMP ID='t', T=    0.022231639755 / 
&RAMP ID='t', T=    0.022398010371 / 
&RAMP ID='t', T=    0.022564380986 / 
&RAMP ID='t', T=    0.022730751601 / 
&RAMP ID='t', T=    0.022897122217 / 
&RAMP ID='t', T=    0.023063492832 / 
&RAMP ID='t', T=    0.023229863448 / 
&RAMP ID='t', T=    0.023396234063 / 
&RAMP ID='t', T=    0.023649158545 / 
&RAMP ID='t', T=    0.023902083026 / 
&RAMP ID='t', T=    0.024155007508 / 
&RAMP ID='t', T=    0.024407931990 / 
&RAMP ID='t', T=    0.024660856471 / 
&RAMP ID='t', T=    0.024913780953 / 
&RAMP ID='t', T=    0.025166705435 / 
&RAMP ID='t', T=    0.025419629916 / 
&RAMP ID='t', T=    0.025672554398 / 
&RAMP ID='t', T=    0.025925478880 / 
&RAMP ID='t', T=    0.026178403361 / 
&RAMP ID='t', T=    0.026431327843 / 
&RAMP ID='t', T=    0.026684252325 / 
&RAMP ID='t', T=    0.026937176806 / 
&RAMP ID='t', T=    0.027190101288 / 
&RAMP ID='t', T=    0.027443025770 / 
&RAMP ID='t', T=    0.027695950251 / 
&RAMP ID='t', T=    0.027948874733 / 
&RAMP ID='t', T=    0.028201799215 / 
&RAMP ID='t', T=    0.028454723696 / 
&RAMP ID='t', T=    0.028707648178 / 
&RAMP ID='t', T=    0.028960572660 / 
&RAMP ID='t', T=    0.029213497141 / 
&RAMP ID='t', T=    0.029466421623 / 
&RAMP ID='t', T=    0.029719346105 / 
&RAMP ID='t', T=    0.029972270586 / 
&RAMP ID='t', T=    0.030225195068 / 
&RAMP ID='t', T=    0.030478119550 / 
&RAMP ID='t', T=    0.030731044031 / 
&RAMP ID='t', T=    0.030983968513 / 
&RAMP ID='t', T=    0.031171510774 / 
&RAMP ID='t', T=    0.031359053035 / 
&RAMP ID='t', T=    0.031546595295 / 
&RAMP ID='t', T=    0.031734137556 / 
&RAMP ID='t', T=    0.031921679817 / 
&RAMP ID='t', T=    0.032055999997 / 
&RAMP ID='t', T=    0.032190320178 / 
&RAMP ID='t', T=    0.032324640358 / 
&RAMP ID='t', T=    0.032458960539 / 
&RAMP ID='t', T=    0.032593280719 / 
&RAMP ID='t', T=    0.032727600900 / 
&RAMP ID='t', T=    0.032861921080 / 
&RAMP ID='t', T=    0.032996241261 / 
&RAMP ID='t', T=    0.033130561441 / 
&RAMP ID='t', T=    0.033264881622 / 
&RAMP ID='t', T=    0.033399201802 / 
&RAMP ID='t', T=    0.033533521983 / 
&RAMP ID='t', T=    0.033667842163 / 
&RAMP ID='t', T=    0.033802162344 / 
&RAMP ID='t', T=    0.034010118553 / 
&RAMP ID='t', T=    0.034218074763 / 
&RAMP ID='t', T=    0.034426030972 / 
&RAMP ID='t', T=    0.034633987182 / 
&RAMP ID='t', T=    0.034841943392 / 
&RAMP ID='t', T=    0.035049899601 / 
&RAMP ID='t', T=    0.035257855811 / 
&RAMP ID='t', T=    0.035465812020 / 
&RAMP ID='t', T=    0.035673768230 / 
&RAMP ID='t', T=    0.035881724440 / 
&RAMP ID='t', T=    0.036089680649 / 
&RAMP ID='t', T=    0.036297636859 / 
&RAMP ID='t', T=    0.036505593068 / 
&RAMP ID='t', T=    0.036713549278 / 
&RAMP ID='t', T=    0.036921505487 / 
&RAMP ID='t', T=    0.037129461697 / 
&RAMP ID='t', T=    0.037337417907 / 
&RAMP ID='t', T=    0.037545374116 / 
&RAMP ID='t', T=    0.037753330326 / 
&RAMP ID='t', T=    0.037961286535 / 
&RAMP ID='t', T=    0.038169242745 / 
&RAMP ID='t', T=    0.038377198955 / 
&RAMP ID='t', T=    0.038585155164 / 
&RAMP ID='t', T=    0.038793111374 / 
&RAMP ID='t', T=    0.039001067583 / 
&RAMP ID='t', T=    0.039209023793 / 
&RAMP ID='t', T=    0.039416980003 / 
&RAMP ID='t', T=    0.039624936212 / 
&RAMP ID='t', T=    0.039832892422 / 
&RAMP ID='t', T=    0.040040848631 / 
&RAMP ID='t', T=    0.040189009462 / 
&RAMP ID='t', T=    0.040337170292 / 
&RAMP ID='t', T=    0.040485331123 / 
&RAMP ID='t', T=    0.040633491954 / 
&RAMP ID='t', T=    0.040781652784 / 
&RAMP ID='t', T=    0.040929813615 / 
&RAMP ID='t', T=    0.041030052658 / 
&RAMP ID='t', T=    0.041101711002 / 
&RAMP ID='t', T=    0.041173369346 / 
&RAMP ID='t', T=    0.041245027690 / 
&RAMP ID='t', T=    0.041316686033 / 
&RAMP ID='t', T=    0.041388344377 / 
&RAMP ID='t', T=    0.041460002721 / 
&RAMP ID='t', T=    0.041531661065 / 
&RAMP ID='t', T=    0.041603319408 / 
&RAMP ID='t', T=    0.041674977752 / 
&RAMP ID='t', T=    0.041746636096 / 
&RAMP ID='t', T=    0.041818294440 / 
&RAMP ID='t', T=    0.041889952784 / 
&RAMP ID='t', T=    0.041961611127 / 
&RAMP ID='t', T=    0.042072095287 / 
&RAMP ID='t', T=    0.042182579447 / 
&RAMP ID='t', T=    0.042293063607 / 
&RAMP ID='t', T=    0.042403547766 / 
&RAMP ID='t', T=    0.042514031926 / 
&RAMP ID='t', T=    0.042624516086 / 
&RAMP ID='t', T=    0.042735000246 / 
&RAMP ID='t', T=    0.042845484405 / 
&RAMP ID='t', T=    0.042955968565 / 
&RAMP ID='t', T=    0.043066452725 / 
&RAMP ID='t', T=    0.043176936885 / 
&RAMP ID='t', T=    0.043287421044 / 
&RAMP ID='t', T=    0.043397905204 / 
&RAMP ID='t', T=    0.043508389364 / 
&RAMP ID='t', T=    0.043618873524 / 
&RAMP ID='t', T=    0.043729357683 / 
&RAMP ID='t', T=    0.043839841843 / 
&RAMP ID='t', T=    0.043950326003 / 
&RAMP ID='t', T=    0.044060810163 / 
&RAMP ID='t', T=    0.044171294322 / 
&RAMP ID='t', T=    0.044281778482 / 
&RAMP ID='t', T=    0.044392262642 / 
&RAMP ID='t', T=    0.044502746802 / 
&RAMP ID='t', T=    0.044613230961 / 
&RAMP ID='t', T=    0.044694522598 / 
&RAMP ID='t', T=    0.044753861144 / 
&RAMP ID='t', T=    0.044813199689 / 
&RAMP ID='t', T=    0.044872538235 / 
&RAMP ID='t', T=    0.044931876781 / 
&RAMP ID='t', T=    0.044991215327 / 
&RAMP ID='t', T=    0.045032187836 / 
&RAMP ID='t', T=    0.045061699461 / 
&RAMP ID='t', T=    0.045091211087 / 
&RAMP ID='t', T=    0.045120722712 / 
&RAMP ID='t', T=    0.045150234338 / 
&RAMP ID='t', T=    0.045179745964 / 
&RAMP ID='t', T=    0.045209257589 / 
&RAMP ID='t', T=    0.045238769215 / 
&RAMP ID='t', T=    0.045259975542 / 
&RAMP ID='t', T=    0.045274792246 / 
&RAMP ID='t', T=    0.045285458922 / 
&RAMP ID='t', T=    0.045296125598 / 
&RAMP ID='t', T=    0.045306792274 / 
&RAMP ID='t', T=    0.045317458951 / 
&RAMP ID='t', T=    0.045328125627 / 
&RAMP ID='t', T=    0.045338792303 / 
&RAMP ID='t', T=    0.045349458979 / 
&RAMP ID='t', T=    0.045360125655 / 
&RAMP ID='t', T=    0.045370792331 / 
&RAMP ID='t', T=    0.045387923687 / 
&RAMP ID='t', T=    0.045405055042 / 
&RAMP ID='t', T=    0.045422186397 / 
&RAMP ID='t', T=    0.045439317752 / 
&RAMP ID='t', T=    0.045477933698 / 
&RAMP ID='t', T=    0.045543006064 / 
&RAMP ID='t', T=    0.045608078429 / 
&RAMP ID='t', T=    0.045673150795 / 
&RAMP ID='t', T=    0.045738223160 / 
&RAMP ID='t', T=    0.045803295526 / 
&RAMP ID='t', T=    0.045868367891 / 
&RAMP ID='t', T=    0.045933440257 / 
&RAMP ID='t', T=    0.045998512622 / 
&RAMP ID='t', T=    0.046063584988 / 
&RAMP ID='t', T=    0.046128657353 / 
&RAMP ID='t', T=    0.046193729719 / 
&RAMP ID='t', T=    0.046258802084 / 
&RAMP ID='t', T=    0.046304227169 / 
&RAMP ID='t', T=    0.046349652254 / 
&RAMP ID='t', T=    0.046395077339 / 
&RAMP ID='t', T=    0.046440502424 / 
&RAMP ID='t', T=    0.046485927509 / 
&RAMP ID='t', T=    0.046531352595 / 
&RAMP ID='t', T=    0.046576777680 / 
&RAMP ID='t', T=    0.046622202765 / 
&RAMP ID='t', T=    0.046667627850 / 
&RAMP ID='t', T=    0.046713052935 / 
&RAMP ID='t', T=    0.046758478020 / 
&RAMP ID='t', T=    0.046803903105 / 
&RAMP ID='t', T=    0.046849328190 / 
&RAMP ID='t', T=    0.046894753275 / 
&RAMP ID='t', T=    0.046940178360 / 
&RAMP ID='t', T=    0.046985603445 / 
&RAMP ID='t', T=    0.047031028530 / 
&RAMP ID='t', T=    0.047076453615 / 
&RAMP ID='t', T=    0.047121878700 / 
&RAMP ID='t', T=    0.047167303785 / 
&RAMP ID='t', T=    0.047212728870 / 
&RAMP ID='t', T=    0.047258153955 / 
&RAMP ID='t', T=    0.047303579041 / 
&RAMP ID='t', T=    0.047349004126 / 
&RAMP ID='t', T=    0.047394429211 / 
&RAMP ID='t', T=    0.047439854296 / 
&RAMP ID='t', T=    0.047485279381 / 
&RAMP ID='t', T=    0.047530704466 / 
&RAMP ID='t', T=    0.047562125889 / 
&RAMP ID='t', T=    0.047593547313 / 
&RAMP ID='t', T=    0.047624968736 / 
&RAMP ID='t', T=    0.047656390159 / 
&RAMP ID='t', T=    0.047687811583 / 
&RAMP ID='t', T=    0.047719233006 / 
&RAMP ID='t', T=    0.047750654429 / 
&RAMP ID='t', T=    0.047782075853 / 
&RAMP ID='t', T=    0.047813497276 / 
&RAMP ID='t', T=    0.047844918700 / 
&RAMP ID='t', T=    0.047876340123 / 
&RAMP ID='t', T=    0.047923535325 / 
&RAMP ID='t', T=    0.047970730527 / 
&RAMP ID='t', T=    0.048017925730 / 
&RAMP ID='t', T=    0.048065120932 / 
&RAMP ID='t', T=    0.048112316134 / 
&RAMP ID='t', T=    0.048159511336 / 
&RAMP ID='t', T=    0.048206706539 / 
&RAMP ID='t', T=    0.048253901741 / 
&RAMP ID='t', T=    0.048301096943 / 
&RAMP ID='t', T=    0.048348292145 / 
&RAMP ID='t', T=    0.048395487348 / 
&RAMP ID='t', T=    0.048442682550 / 
&RAMP ID='t', T=    0.048489877752 / 
&RAMP ID='t', T=    0.048537072954 / 
&RAMP ID='t', T=    0.048584268156 / 
&RAMP ID='t', T=    0.048618931928 / 
&RAMP ID='t', T=    0.048643790794 / 
&RAMP ID='t', T=    0.048662070662 / 
&RAMP ID='t', T=    0.048680350529 / 
&RAMP ID='t', T=    0.048698630396 / 
&RAMP ID='t', T=    0.048716910264 / 
&RAMP ID='t', T=    0.048735190131 / 
&RAMP ID='t', T=    0.048753469999 / 
&RAMP ID='t', T=    0.048766452896 / 
&RAMP ID='t', T=    0.048775502502 / 
&RAMP ID='t', T=    0.048781995788 / 
&RAMP ID='t', T=    0.048788489075 / 
&RAMP ID='t', T=    0.048794982361 / 
&RAMP ID='t', T=    0.048801475648 / 
&RAMP ID='t', T=    0.048807968934 / 
&RAMP ID='t', T=    0.048814462220 / 
&RAMP ID='t', T=    0.048819199292 / 
&RAMP ID='t', T=    0.048822667009 / 
&RAMP ID='t', T=    0.048826134725 / 
&RAMP ID='t', T=    0.048829602441 / 
&RAMP ID='t', T=    0.048833070158 / 
&RAMP ID='t', T=    0.048836537874 / 
&RAMP ID='t', T=    0.048840005591 / 
&RAMP ID='t', T=    0.048843473307 / 
&RAMP ID='t', T=    0.048846941023 / 
&RAMP ID='t', T=    0.048849462315 / 
&RAMP ID='t', T=    0.048851285112 / 
&RAMP ID='t', T=    0.048853107909 / 
&RAMP ID='t', T=    0.048854930706 / 
&RAMP ID='t', T=    0.048856753504 / 
&RAMP ID='t', T=    0.048858576301 / 
&RAMP ID='t', T=    0.048860399098 / 
&RAMP ID='t', T=    0.048862221895 / 
&RAMP ID='t', T=    0.048864044692 / 
&RAMP ID='t', T=    0.048865867490 / 
&RAMP ID='t', T=    0.048867690287 / 
&RAMP ID='t', T=    0.048869513084 / 
&RAMP ID='t', T=    0.048872306759 / 
&RAMP ID='t', T=    0.048875100435 / 
&RAMP ID='t', T=    0.048877894110 / 
&RAMP ID='t', T=    0.048880687785 / 
&RAMP ID='t', T=    0.048886978464 / 
&RAMP ID='t', T=    0.048897979959 / 
&RAMP ID='t', T=    0.048908981454 / 
&RAMP ID='t', T=    0.048919982949 / 
&RAMP ID='t', T=    0.048930984444 / 
&RAMP ID='t', T=    0.048941985939 / 
&RAMP ID='t', T=    0.048961417356 / 
&RAMP ID='t', T=    0.048980848774 / 
&RAMP ID='t', T=    0.049000280192 / 
&RAMP ID='t', T=    0.049019711609 / 
&RAMP ID='t', T=    0.049039143027 / 
&RAMP ID='t', T=    0.049071258272 / 
&RAMP ID='t', T=    0.049103373518 / 
&RAMP ID='t', T=    0.049135488763 / 
&RAMP ID='t', T=    0.049167604008 / 
&RAMP ID='t', T=    0.049199719254 / 
&RAMP ID='t', T=    0.049231834499 / 
&RAMP ID='t', T=    0.049263949744 / 
&RAMP ID='t', T=    0.049296064990 / 
&RAMP ID='t', T=    0.049328180235 / 
&RAMP ID='t', T=    0.049360295480 / 
&RAMP ID='t', T=    0.049392410726 / 
&RAMP ID='t', T=    0.049424525971 / 
&RAMP ID='t', T=    0.049456641216 / 
&RAMP ID='t', T=    0.049488756462 / 
&RAMP ID='t', T=    0.049520871707 / 
&RAMP ID='t', T=    0.049544247495 / 
&RAMP ID='t', T=    0.049560896565 / 
&RAMP ID='t', T=    0.049573055195 / 
&RAMP ID='t', T=    0.049585213824 / 
&RAMP ID='t', T=    0.049597372453 / 
&RAMP ID='t', T=    0.049609531083 / 
&RAMP ID='t', T=    0.049621689712 / 
&RAMP ID='t', T=    0.049633848341 / 
&RAMP ID='t', T=    0.049642270540 / 
&RAMP ID='t', T=    0.049648020882 / 
&RAMP ID='t', T=    0.049652069698 / 
&RAMP ID='t', T=    0.049656118513 / 
&RAMP ID='t', T=    0.049660167328 / 
&RAMP ID='t', T=    0.049664216144 / 
&RAMP ID='t', T=    0.049668264959 / 
&RAMP ID='t', T=    0.049672313775 / 
&RAMP ID='t', T=    0.049676362590 / 
&RAMP ID='t', T=    0.049680411405 / 
&RAMP ID='t', T=    0.049684460221 / 
&RAMP ID='t', T=    0.049691547866 / 
&RAMP ID='t', T=    0.049698635511 / 
&RAMP ID='t', T=    0.049705723156 / 
&RAMP ID='t', T=    0.049712810801 / 
&RAMP ID='t', T=    0.049726619056 / 
&RAMP ID='t', T=    0.049740427312 / 
&RAMP ID='t', T=    0.049754235567 / 
&RAMP ID='t', T=    0.049768043822 / 
&RAMP ID='t', T=    0.049781852078 / 
&RAMP ID='t', T=    0.049803864332 / 
&RAMP ID='t', T=    0.049825876586 / 
&RAMP ID='t', T=    0.049847888841 / 
&RAMP ID='t', T=    0.049869901095 / 
&RAMP ID='t', T=    0.049891913350 / 
&RAMP ID='t', T=    0.049913925604 / 
&RAMP ID='t', T=    0.049935937858 / 
&RAMP ID='t', T=    0.049957950113 / 
&RAMP ID='t', T=    0.049979962367 / 
&RAMP ID='t', T=    0.050001974622 / 
&RAMP ID='t', T=    0.050023986876 / 
&RAMP ID='t', T=    0.050045999130 / 
&RAMP ID='t', T=    0.050068011385 / 
&RAMP ID='t', T=    0.050090023639 / 
&RAMP ID='t', T=    0.050112035893 / 
&RAMP ID='t', T=    0.050128136932 / 
&RAMP ID='t', T=    0.050139799621 / 
&RAMP ID='t', T=    0.050148438403 / 
&RAMP ID='t', T=    0.050157077185 / 
&RAMP ID='t', T=    0.050165715967 / 
&RAMP ID='t', T=    0.050174354749 / 
&RAMP ID='t', T=    0.050182993531 / 
&RAMP ID='t', T=    0.050191632313 / 
&RAMP ID='t', T=    0.050197942202 / 
&RAMP ID='t', T=    0.050202462567 / 
&RAMP ID='t', T=    0.050205813623 / 
&RAMP ID='t', T=    0.050209164679 / 
&RAMP ID='t', T=    0.050212515735 / 
&RAMP ID='t', T=    0.050215866791 / 
&RAMP ID='t', T=    0.050219217847 / 
&RAMP ID='t', T=    0.050222568903 / 
&RAMP ID='t', T=    0.050225919959 / 
&RAMP ID='t', T=    0.050229271016 / 
&RAMP ID='t', T=    0.050231659929 / 
&RAMP ID='t', T=    0.050233365541 / 
&RAMP ID='t', T=    0.050235071153 / 
&RAMP ID='t', T=    0.050236776766 / 
&RAMP ID='t', T=    0.050238482378 / 
&RAMP ID='t', T=    0.050240187990 / 
&RAMP ID='t', T=    0.050241893603 / 
&RAMP ID='t', T=    0.050243599215 / 
&RAMP ID='t', T=    0.050245304827 / 
&RAMP ID='t', T=    0.050247010440 / 
&RAMP ID='t', T=    0.050248716052 / 
&RAMP ID='t', T=    0.050250421664 / 
&RAMP ID='t', T=    0.050253491796 / 
&RAMP ID='t', T=    0.050256561928 / 
&RAMP ID='t', T=    0.050259632060 / 
&RAMP ID='t', T=    0.050262702192 / 
&RAMP ID='t', T=    0.050267412030 / 
&RAMP ID='t', T=    0.050274526425 / 
&RAMP ID='t', T=    0.050281640820 / 
&RAMP ID='t', T=    0.050293193204 / 
&RAMP ID='t', T=    0.050304745588 / 
&RAMP ID='t', T=    0.050316297972 / 
&RAMP ID='t', T=    0.050327850356 / 
&RAMP ID='t', T=    0.050339402741 / 
&RAMP ID='t', T=    0.050350955125 / 
&RAMP ID='t', T=    0.050362507509 / 
&RAMP ID='t', T=    0.050374059893 / 
&RAMP ID='t', T=    0.050385612277 / 
&RAMP ID='t', T=    0.050397164661 / 
&RAMP ID='t', T=    0.050408717045 / 
&RAMP ID='t', T=    0.050420269429 / 
&RAMP ID='t', T=    0.050431821813 / 
&RAMP ID='t', T=    0.050443374197 / 
&RAMP ID='t', T=    0.050451548348 / 
&RAMP ID='t', T=    0.050457290064 / 
&RAMP ID='t', T=    0.050461525622 / 
&RAMP ID='t', T=    0.050465761179 / 
&RAMP ID='t', T=    0.050469996737 / 
&RAMP ID='t', T=    0.050474232295 / 
&RAMP ID='t', T=    0.050478467853 / 
&RAMP ID='t', T=    0.050482703411 / 
&RAMP ID='t', T=    0.050486938968 / 
&RAMP ID='t', T=    0.050491174526 / 
&RAMP ID='t', T=    0.050495410084 / 
&RAMP ID='t', T=    0.050498472487 / 
&RAMP ID='t', T=    0.050500699082 / 
&RAMP ID='t', T=    0.050502925676 / 
&RAMP ID='t', T=    0.050505152271 / 
&RAMP ID='t', T=    0.050507378866 / 
&RAMP ID='t', T=    0.050509605461 / 
&RAMP ID='t', T=    0.050511832056 / 
&RAMP ID='t', T=    0.050514058651 / 
&RAMP ID='t', T=    0.050516285246 / 
&RAMP ID='t', T=    0.050518511841 / 
&RAMP ID='t', T=    0.050520738436 / 
&RAMP ID='t', T=    0.050522358432 / 
&RAMP ID='t', T=    0.050523978429 / 
&RAMP ID='t', T=    0.050525598426 / 
&RAMP ID='t', T=    0.050527218423 / 
&RAMP ID='t', T=    0.050528838419 / 
&RAMP ID='t', T=    0.050530458416 / 
&RAMP ID='t', T=    0.050532078413 / 
&RAMP ID='t', T=    0.050533698410 / 
&RAMP ID='t', T=    0.050535318406 / 
&RAMP ID='t', T=    0.050536938403 / 
&RAMP ID='t', T=    0.050538558400 / 
&RAMP ID='t', T=    0.050540178397 / 
&RAMP ID='t', T=    0.050543115081 / 
&RAMP ID='t', T=    0.050546051765 / 
&RAMP ID='t', T=    0.050548988449 / 
&RAMP ID='t', T=    0.050551925134 / 
&RAMP ID='t', T=    0.050554861818 / 
&RAMP ID='t', T=    0.050560088417 / 
&RAMP ID='t', T=    0.050565315015 / 
&RAMP ID='t', T=    0.050570541614 / 
&RAMP ID='t', T=    0.050575768213 / 
&RAMP ID='t', T=    0.050584026702 / 
&RAMP ID='t', T=    0.050592285191 / 
&RAMP ID='t', T=    0.050600543681 / 
&RAMP ID='t', T=    0.050608802170 / 
&RAMP ID='t', T=    0.050617060659 / 
&RAMP ID='t', T=    0.050625319149 / 
&RAMP ID='t', T=    0.050633577638 / 
&RAMP ID='t', T=    0.050641836128 / 
&RAMP ID='t', T=    0.050650094617 / 
&RAMP ID='t', T=    0.050658353106 / 
&RAMP ID='t', T=    0.050666611596 / 
&RAMP ID='t', T=    0.050674870085 / 
&RAMP ID='t', T=    0.050683128574 / 
&RAMP ID='t', T=    0.050691387064 / 
&RAMP ID='t', T=    0.050699645553 / 
&RAMP ID='t', T=    0.050707904042 / 
&RAMP ID='t', T=    0.050716162532 / 
&RAMP ID='t', T=    0.050724421021 / 
&RAMP ID='t', T=    0.050732679511 / 
&RAMP ID='t', T=    0.050740938000 / 
&RAMP ID='t', T=    0.050749196489 / 
&RAMP ID='t', T=    0.050757454979 / 
&RAMP ID='t', T=    0.050765713468 / 
&RAMP ID='t', T=    0.050773971957 / 
&RAMP ID='t', T=    0.050782230447 / 
&RAMP ID='t', T=    0.050790488936 / 
&RAMP ID='t', T=    0.050798747426 / 
&RAMP ID='t', T=    0.050807005915 / 
&RAMP ID='t', T=    0.050815264404 / 
&RAMP ID='t', T=    0.050823522894 / 
&RAMP ID='t', T=    0.050828964276 / 
&RAMP ID='t', T=    0.050832645083 / 
&RAMP ID='t', T=    0.050836325891 / 
&RAMP ID='t', T=    0.050840006699 / 
&RAMP ID='t', T=    0.050843687507 / 
&RAMP ID='t', T=    0.050847368315 / 
&RAMP ID='t', T=    0.050851049123 / 
&RAMP ID='t', T=    0.050854729931 / 
&RAMP ID='t', T=    0.050860621505 / 
&RAMP ID='t', T=    0.050866513080 / 
&RAMP ID='t', T=    0.050872404655 / 
&RAMP ID='t', T=    0.050878296229 / 
&RAMP ID='t', T=    0.050884187804 / 
&RAMP ID='t', T=    0.050890079379 / 
&RAMP ID='t', T=    0.050899297100 / 