&HEAD CHID='ignition_delay_T1100K_Phi1p0', TITLE='ignition_delay T=1100K Phi=1.0' /

&MISC GVEC(3)=0.0, NOISE=F, STRATIFICATION=F, SIMULATION_MODE='DNS' /

&RADI RADIATION=F/
&SURF ID='DEF',DEFAULT=T,ADIABATIC=T/

&COMB FINITE_RATE_MIN_TEMP=300,ZZ_MIN_GLOBAL=1E-15,INITIAL_UNMIXED_FRACTION=0.0,ODE_SOLVER='CVODE',ODE_MIN_ATOL=1E-15,ODE_REL_ERROR=1E-9/
&TIME T_END=10, RAMP_TIME='t' /
&DUMP DT_DEVC=1e-20/

&CATF OTHER_FILES='../../Utilities/Input_Libraries/Chemical_Mechanisms/FDS/grimech30.fds' /

&MESH IJK=5,1,5, XB=0.0,1.0,0.0,0.2,0.0,1.0 /
&OBST XB=0.0,1.0,0.0,0.2,0.0,1.0/
&HOLE XB=0.4,0.6,-1.0,1.0,0.4,0.6/
&INIT XB=0.4,0.6,-1.0,1.0,0.4,0.6, MASS_FRACTION(1)=0.22014124, SPEC_ID(1)='O2',MASS_FRACTION(2)=0.05518667,SPEC_ID(2)='CH4',  TEMPERATURE=826.85 /
&DEVC XYZ=0.5,0.0,0.5, QUANTITY='MASS FRACTION', SPEC_ID='OH',  ID='OH' /
&DEVC XYZ=0.5,0.0,0.5, QUANTITY='TEMPERATURE', ID='TMP'/

&RAMP ID='t', T=    0.000000000001 / 
&RAMP ID='t', T=    0.000000009071 / 
&RAMP ID='t', T=    0.000000099776 / 
&RAMP ID='t', T=    0.000000285778 / 
&RAMP ID='t', T=    0.000000613274 / 
&RAMP ID='t', T=    0.000000940770 / 
&RAMP ID='t', T=    0.000001268266 / 
&RAMP ID='t', T=    0.000001782881 / 
&RAMP ID='t', T=    0.000002297495 / 
&RAMP ID='t', T=    0.000002812109 / 
&RAMP ID='t', T=    0.000003591140 / 
&RAMP ID='t', T=    0.000004370170 / 
&RAMP ID='t', T=    0.000005149201 / 
&RAMP ID='t', T=    0.000006364749 / 
&RAMP ID='t', T=    0.000007580297 / 
&RAMP ID='t', T=    0.000008795845 / 
&RAMP ID='t', T=    0.000010011393 / 
&RAMP ID='t', T=    0.000011887835 / 
&RAMP ID='t', T=    0.000013764277 / 
&RAMP ID='t', T=    0.000017217888 / 
&RAMP ID='t', T=    0.000020671499 / 
&RAMP ID='t', T=    0.000024125110 / 
&RAMP ID='t', T=    0.000027578721 / 
&RAMP ID='t', T=    0.000031032332 / 
&RAMP ID='t', T=    0.000037804033 / 
&RAMP ID='t', T=    0.000044575733 / 
&RAMP ID='t', T=    0.000051347433 / 
&RAMP ID='t', T=    0.000058119134 / 
&RAMP ID='t', T=    0.000070041459 / 
&RAMP ID='t', T=    0.000089713733 / 
&RAMP ID='t', T=    0.000122386277 / 
&RAMP ID='t', T=    0.000143652145 / 
&RAMP ID='t', T=    0.000164918012 / 
&RAMP ID='t', T=    0.000186183879 / 
&RAMP ID='t', T=    0.000207449747 / 
&RAMP ID='t', T=    0.000240317566 / 
&RAMP ID='t', T=    0.000293094549 / 
&RAMP ID='t', T=    0.000345871532 / 
&RAMP ID='t', T=    0.000398648515 / 
&RAMP ID='t', T=    0.000451425498 / 
&RAMP ID='t', T=    0.000504202481 / 
&RAMP ID='t', T=    0.000556979464 / 
&RAMP ID='t', T=    0.000609756447 / 
&RAMP ID='t', T=    0.000662533430 / 
&RAMP ID='t', T=    0.000715310413 / 
&RAMP ID='t', T=    0.000801208475 / 
&RAMP ID='t', T=    0.000887106538 / 
&RAMP ID='t', T=    0.000973004601 / 
&RAMP ID='t', T=    0.001058902664 / 
&RAMP ID='t', T=    0.001144800726 / 
&RAMP ID='t', T=    0.001230698789 / 
&RAMP ID='t', T=    0.001316596852 / 
&RAMP ID='t', T=    0.001402494914 / 
&RAMP ID='t', T=    0.001488392977 / 
&RAMP ID='t', T=    0.001574291040 / 
&RAMP ID='t', T=    0.001660189103 / 
&RAMP ID='t', T=    0.001746087165 / 
&RAMP ID='t', T=    0.001831985228 / 
&RAMP ID='t', T=    0.001917883291 / 
&RAMP ID='t', T=    0.002003781354 / 
&RAMP ID='t', T=    0.002089679416 / 
&RAMP ID='t', T=    0.002175577479 / 
&RAMP ID='t', T=    0.002261475542 / 
&RAMP ID='t', T=    0.002347373604 / 
&RAMP ID='t', T=    0.002410264003 / 
&RAMP ID='t', T=    0.002473154402 / 
&RAMP ID='t', T=    0.002536044801 / 
&RAMP ID='t', T=    0.002609338239 / 
&RAMP ID='t', T=    0.002682631677 / 
&RAMP ID='t', T=    0.002755925115 / 
&RAMP ID='t', T=    0.002829218553 / 
&RAMP ID='t', T=    0.002902511991 / 
&RAMP ID='t', T=    0.002975805429 / 
&RAMP ID='t', T=    0.003049098867 / 
&RAMP ID='t', T=    0.003122392305 / 
&RAMP ID='t', T=    0.003195685743 / 
&RAMP ID='t', T=    0.003268979181 / 
&RAMP ID='t', T=    0.003342272619 / 
&RAMP ID='t', T=    0.003415566057 / 
&RAMP ID='t', T=    0.003488859495 / 
&RAMP ID='t', T=    0.003562152933 / 
&RAMP ID='t', T=    0.003635446371 / 
&RAMP ID='t', T=    0.003708739809 / 
&RAMP ID='t', T=    0.003782033247 / 
&RAMP ID='t', T=    0.003855326686 / 
&RAMP ID='t', T=    0.003928620124 / 
&RAMP ID='t', T=    0.004001913562 / 
&RAMP ID='t', T=    0.004075207000 / 
&RAMP ID='t', T=    0.004148500438 / 
&RAMP ID='t', T=    0.004221793876 / 
&RAMP ID='t', T=    0.004295087314 / 
&RAMP ID='t', T=    0.004368380752 / 
&RAMP ID='t', T=    0.004441674190 / 
&RAMP ID='t', T=    0.004514967628 / 
&RAMP ID='t', T=    0.004588261066 / 
&RAMP ID='t', T=    0.004661554504 / 
&RAMP ID='t', T=    0.004734847942 / 
&RAMP ID='t', T=    0.004808141380 / 
&RAMP ID='t', T=    0.004881434818 / 
&RAMP ID='t', T=    0.004954728256 / 
&RAMP ID='t', T=    0.005028021694 / 
&RAMP ID='t', T=    0.005101315132 / 
&RAMP ID='t', T=    0.005174608570 / 
&RAMP ID='t', T=    0.005247902008 / 
&RAMP ID='t', T=    0.005321195446 / 
&RAMP ID='t', T=    0.005394488884 / 
&RAMP ID='t', T=    0.005467782323 / 
&RAMP ID='t', T=    0.005541075761 / 
&RAMP ID='t', T=    0.005614369199 / 
&RAMP ID='t', T=    0.005687662637 / 
&RAMP ID='t', T=    0.005760956075 / 
&RAMP ID='t', T=    0.005834249513 / 
&RAMP ID='t', T=    0.005907542951 / 
&RAMP ID='t', T=    0.005980836389 / 
&RAMP ID='t', T=    0.006091680493 / 
&RAMP ID='t', T=    0.006202524598 / 
&RAMP ID='t', T=    0.006313368702 / 
&RAMP ID='t', T=    0.006424212807 / 
&RAMP ID='t', T=    0.006535056911 / 
&RAMP ID='t', T=    0.006645901016 / 
&RAMP ID='t', T=    0.006756745120 / 
&RAMP ID='t', T=    0.006867589225 / 
&RAMP ID='t', T=    0.006978433329 / 
&RAMP ID='t', T=    0.007089277434 / 
&RAMP ID='t', T=    0.007200121538 / 
&RAMP ID='t', T=    0.007310965643 / 
&RAMP ID='t', T=    0.007421809747 / 
&RAMP ID='t', T=    0.007532653852 / 
&RAMP ID='t', T=    0.007643497956 / 
&RAMP ID='t', T=    0.007754342061 / 
&RAMP ID='t', T=    0.007865186165 / 
&RAMP ID='t', T=    0.007976030270 / 
&RAMP ID='t', T=    0.008086874374 / 
&RAMP ID='t', T=    0.008197718479 / 
&RAMP ID='t', T=    0.008308562583 / 
&RAMP ID='t', T=    0.008419406687 / 
&RAMP ID='t', T=    0.008530250792 / 
&RAMP ID='t', T=    0.008641094896 / 
&RAMP ID='t', T=    0.008751939001 / 
&RAMP ID='t', T=    0.008862783105 / 
&RAMP ID='t', T=    0.008973627210 / 
&RAMP ID='t', T=    0.009084471314 / 
&RAMP ID='t', T=    0.009195315419 / 
&RAMP ID='t', T=    0.009306159523 / 
&RAMP ID='t', T=    0.009417003628 / 
&RAMP ID='t', T=    0.009527847732 / 
&RAMP ID='t', T=    0.009638691837 / 
&RAMP ID='t', T=    0.009749535941 / 
&RAMP ID='t', T=    0.009860380046 / 
&RAMP ID='t', T=    0.009971224150 / 
&RAMP ID='t', T=    0.010082068255 / 
&RAMP ID='t', T=    0.010251110493 / 
&RAMP ID='t', T=    0.010420152731 / 
&RAMP ID='t', T=    0.010589194969 / 
&RAMP ID='t', T=    0.010758237207 / 
&RAMP ID='t', T=    0.010927279445 / 
&RAMP ID='t', T=    0.011096321684 / 
&RAMP ID='t', T=    0.011265363922 / 
&RAMP ID='t', T=    0.011434406160 / 
&RAMP ID='t', T=    0.011603448398 / 
&RAMP ID='t', T=    0.011772490636 / 
&RAMP ID='t', T=    0.011941532874 / 
&RAMP ID='t', T=    0.012110575112 / 
&RAMP ID='t', T=    0.012279617350 / 
&RAMP ID='t', T=    0.012448659589 / 
&RAMP ID='t', T=    0.012617701827 / 
&RAMP ID='t', T=    0.012786744065 / 
&RAMP ID='t', T=    0.012955786303 / 
&RAMP ID='t', T=    0.013124828541 / 
&RAMP ID='t', T=    0.013293870779 / 
&RAMP ID='t', T=    0.013462913017 / 
&RAMP ID='t', T=    0.013631955255 / 
&RAMP ID='t', T=    0.013800997494 / 
&RAMP ID='t', T=    0.013970039732 / 
&RAMP ID='t', T=    0.014139081970 / 
&RAMP ID='t', T=    0.014308124208 / 
&RAMP ID='t', T=    0.014477166446 / 
&RAMP ID='t', T=    0.014646208684 / 
&RAMP ID='t', T=    0.014815250922 / 
&RAMP ID='t', T=    0.014984293160 / 
&RAMP ID='t', T=    0.015240454104 / 
&RAMP ID='t', T=    0.015496615048 / 
&RAMP ID='t', T=    0.015752775991 / 
&RAMP ID='t', T=    0.016008936935 / 
&RAMP ID='t', T=    0.016265097879 / 
&RAMP ID='t', T=    0.016521258822 / 
&RAMP ID='t', T=    0.016777419766 / 
&RAMP ID='t', T=    0.017033580709 / 
&RAMP ID='t', T=    0.017289741653 / 
&RAMP ID='t', T=    0.017545902597 / 
&RAMP ID='t', T=    0.017802063540 / 
&RAMP ID='t', T=    0.018058224484 / 
&RAMP ID='t', T=    0.018314385428 / 
&RAMP ID='t', T=    0.018570546371 / 
&RAMP ID='t', T=    0.018826707315 / 
&RAMP ID='t', T=    0.019082868258 / 
&RAMP ID='t', T=    0.019339029202 / 
&RAMP ID='t', T=    0.019595190146 / 
&RAMP ID='t', T=    0.019985474792 / 
&RAMP ID='t', T=    0.020375759439 / 
&RAMP ID='t', T=    0.020766044086 / 
&RAMP ID='t', T=    0.021156328732 / 
&RAMP ID='t', T=    0.021546613379 / 
&RAMP ID='t', T=    0.021936898026 / 
&RAMP ID='t', T=    0.022327182672 / 
&RAMP ID='t', T=    0.022717467319 / 
&RAMP ID='t', T=    0.023107751966 / 
&RAMP ID='t', T=    0.023498036612 / 
&RAMP ID='t', T=    0.024126503943 / 
&RAMP ID='t', T=    0.024754971274 / 
&RAMP ID='t', T=    0.025383438605 / 
&RAMP ID='t', T=    0.026011905936 / 
&RAMP ID='t', T=    0.026640373267 / 
&RAMP ID='t', T=    0.027268840598 / 
&RAMP ID='t', T=    0.027897307929 / 
&RAMP ID='t', T=    0.028525775260 / 
&RAMP ID='t', T=    0.029154242591 / 
&RAMP ID='t', T=    0.030123093240 / 
&RAMP ID='t', T=    0.031091943888 / 
&RAMP ID='t', T=    0.032060794537 / 
&RAMP ID='t', T=    0.033029645185 / 
&RAMP ID='t', T=    0.033998495834 / 
&RAMP ID='t', T=    0.034967346482 / 
&RAMP ID='t', T=    0.036425170085 / 
&RAMP ID='t', T=    0.037882993687 / 
&RAMP ID='t', T=    0.039340817289 / 
&RAMP ID='t', T=    0.040798640891 / 
&RAMP ID='t', T=    0.042256464493 / 
&RAMP ID='t', T=    0.043714288095 / 
&RAMP ID='t', T=    0.045172111697 / 
&RAMP ID='t', T=    0.046629935299 / 
&RAMP ID='t', T=    0.048087758902 / 
&RAMP ID='t', T=    0.049545582504 / 
&RAMP ID='t', T=    0.051003406106 / 
&RAMP ID='t', T=    0.052461229708 / 
&RAMP ID='t', T=    0.053919053310 / 
&RAMP ID='t', T=    0.055376876912 / 
&RAMP ID='t', T=    0.056834700514 / 
&RAMP ID='t', T=    0.058292524116 / 
&RAMP ID='t', T=    0.059750347718 / 
&RAMP ID='t', T=    0.061208171321 / 
&RAMP ID='t', T=    0.062665994923 / 
&RAMP ID='t', T=    0.064123818525 / 
&RAMP ID='t', T=    0.065581642127 / 
&RAMP ID='t', T=    0.067039465729 / 
&RAMP ID='t', T=    0.068497289331 / 
&RAMP ID='t', T=    0.069955112933 / 
&RAMP ID='t', T=    0.071412936535 / 
&RAMP ID='t', T=    0.072870760138 / 
&RAMP ID='t', T=    0.074328583740 / 
&RAMP ID='t', T=    0.075786407342 / 
&RAMP ID='t', T=    0.077244230944 / 
&RAMP ID='t', T=    0.078702054546 / 
&RAMP ID='t', T=    0.080159878148 / 
&RAMP ID='t', T=    0.081237071904 / 
&RAMP ID='t', T=    0.082314265660 / 
&RAMP ID='t', T=    0.083391459416 / 
&RAMP ID='t', T=    0.084468653172 / 
&RAMP ID='t', T=    0.085545846928 / 
&RAMP ID='t', T=    0.086623040684 / 
&RAMP ID='t', T=    0.087700234440 / 
&RAMP ID='t', T=    0.088777428196 / 
&RAMP ID='t', T=    0.089854621952 / 
&RAMP ID='t', T=    0.090931815708 / 
&RAMP ID='t', T=    0.092009009464 / 
&RAMP ID='t', T=    0.093086203220 / 
&RAMP ID='t', T=    0.094163396976 / 
&RAMP ID='t', T=    0.095240590732 / 
&RAMP ID='t', T=    0.096317784489 / 
&RAMP ID='t', T=    0.097394978245 / 
&RAMP ID='t', T=    0.098472172001 / 
&RAMP ID='t', T=    0.099549365757 / 
&RAMP ID='t', T=    0.100626559513 / 
&RAMP ID='t', T=    0.101703753269 / 
&RAMP ID='t', T=    0.102780947025 / 
&RAMP ID='t', T=    0.103858140781 / 
&RAMP ID='t', T=    0.104935334537 / 
&RAMP ID='t', T=    0.106012528293 / 
&RAMP ID='t', T=    0.107089722049 / 
&RAMP ID='t', T=    0.108166915805 / 
&RAMP ID='t', T=    0.109244109561 / 
&RAMP ID='t', T=    0.110321303317 / 
&RAMP ID='t', T=    0.111398497073 / 
&RAMP ID='t', T=    0.112475690829 / 
&RAMP ID='t', T=    0.113552884585 / 
&RAMP ID='t', T=    0.114630078341 / 
&RAMP ID='t', T=    0.115707272097 / 
&RAMP ID='t', T=    0.116784465853 / 
&RAMP ID='t', T=    0.117861659609 / 
&RAMP ID='t', T=    0.118938853365 / 
&RAMP ID='t', T=    0.120016047121 / 
&RAMP ID='t', T=    0.121093240877 / 
&RAMP ID='t', T=    0.122170434633 / 
&RAMP ID='t', T=    0.123247628389 / 
&RAMP ID='t', T=    0.124324822145 / 
&RAMP ID='t', T=    0.125402015901 / 
&RAMP ID='t', T=    0.126479209657 / 
&RAMP ID='t', T=    0.127556403413 / 
&RAMP ID='t', T=    0.128633597169 / 
&RAMP ID='t', T=    0.129710790925 / 
&RAMP ID='t', T=    0.130416872920 / 
&RAMP ID='t', T=    0.130888736284 / 
&RAMP ID='t', T=    0.131360599647 / 
&RAMP ID='t', T=    0.131832463011 / 
&RAMP ID='t', T=    0.132304326375 / 
&RAMP ID='t', T=    0.132776189739 / 
&RAMP ID='t', T=    0.133248053103 / 
&RAMP ID='t', T=    0.133719916467 / 
&RAMP ID='t', T=    0.134191779830 / 
&RAMP ID='t', T=    0.134663643194 / 
&RAMP ID='t', T=    0.135135506558 / 
&RAMP ID='t', T=    0.135607369922 / 
&RAMP ID='t', T=    0.136079233286 / 
&RAMP ID='t', T=    0.136551096650 / 
&RAMP ID='t', T=    0.137022960013 / 
&RAMP ID='t', T=    0.137494823377 / 
&RAMP ID='t', T=    0.137966686741 / 
&RAMP ID='t', T=    0.138438550105 / 
&RAMP ID='t', T=    0.139168118865 / 
&RAMP ID='t', T=    0.139897687625 / 
&RAMP ID='t', T=    0.140627256386 / 
&RAMP ID='t', T=    0.141356825146 / 
&RAMP ID='t', T=    0.142086393906 / 
&RAMP ID='t', T=    0.142815962667 / 
&RAMP ID='t', T=    0.143545531427 / 
&RAMP ID='t', T=    0.144275100187 / 
&RAMP ID='t', T=    0.145004668947 / 
&RAMP ID='t', T=    0.145734237708 / 
&RAMP ID='t', T=    0.146463806468 / 
&RAMP ID='t', T=    0.147193375228 / 
&RAMP ID='t', T=    0.147922943989 / 
&RAMP ID='t', T=    0.148652512749 / 
&RAMP ID='t', T=    0.149382081509 / 
&RAMP ID='t', T=    0.150111650270 / 
&RAMP ID='t', T=    0.150841219030 / 
&RAMP ID='t', T=    0.151570787790 / 
&RAMP ID='t', T=    0.152103187453 / 
&RAMP ID='t', T=    0.152635587116 / 
&RAMP ID='t', T=    0.153167986779 / 
&RAMP ID='t', T=    0.153700386442 / 
&RAMP ID='t', T=    0.154232786105 / 
&RAMP ID='t', T=    0.154765185768 / 
&RAMP ID='t', T=    0.155297585431 / 
&RAMP ID='t', T=    0.155673410845 / 
&RAMP ID='t', T=    0.155947212954 / 
&RAMP ID='t', T=    0.156221015063 / 
&RAMP ID='t', T=    0.156494817172 / 
&RAMP ID='t', T=    0.156768619281 / 
&RAMP ID='t', T=    0.156958585711 / 
&RAMP ID='t', T=    0.157148552142 / 
&RAMP ID='t', T=    0.157338518572 / 
&RAMP ID='t', T=    0.157528485002 / 
&RAMP ID='t', T=    0.157667329482 / 
&RAMP ID='t', T=    0.157806173962 / 
&RAMP ID='t', T=    0.157945018442 / 
&RAMP ID='t', T=    0.158083862922 / 
&RAMP ID='t', T=    0.158222707402 / 
&RAMP ID='t', T=    0.158361551882 / 
&RAMP ID='t', T=    0.158500396362 / 
&RAMP ID='t', T=    0.158639240842 / 
&RAMP ID='t', T=    0.158778085322 / 
&RAMP ID='t', T=    0.158916929802 / 
&RAMP ID='t', T=    0.159055774281 / 
&RAMP ID='t', T=    0.159194618761 / 
&RAMP ID='t', T=    0.159333463241 / 
&RAMP ID='t', T=    0.159555168302 / 
&RAMP ID='t', T=    0.159776873363 / 
&RAMP ID='t', T=    0.159998578424 / 
&RAMP ID='t', T=    0.160220283484 / 
&RAMP ID='t', T=    0.160441988545 / 
&RAMP ID='t', T=    0.160663693606 / 
&RAMP ID='t', T=    0.161013393918 / 
&RAMP ID='t', T=    0.161363094230 / 
&RAMP ID='t', T=    0.161712794543 / 
&RAMP ID='t', T=    0.162062494855 / 
&RAMP ID='t', T=    0.162412195167 / 
&RAMP ID='t', T=    0.162761895479 / 
&RAMP ID='t', T=    0.163111595792 / 
&RAMP ID='t', T=    0.163461296104 / 
&RAMP ID='t', T=    0.163810996416 / 
&RAMP ID='t', T=    0.164160696729 / 
&RAMP ID='t', T=    0.164510397041 / 
&RAMP ID='t', T=    0.164860097353 / 
&RAMP ID='t', T=    0.165209797665 / 
&RAMP ID='t', T=    0.165559497978 / 
&RAMP ID='t', T=    0.165909198290 / 
&RAMP ID='t', T=    0.166258898602 / 
&RAMP ID='t', T=    0.166608598914 / 
&RAMP ID='t', T=    0.166958299227 / 
&RAMP ID='t', T=    0.167307999539 / 
&RAMP ID='t', T=    0.167657699851 / 
&RAMP ID='t', T=    0.168007400163 / 
&RAMP ID='t', T=    0.168357100476 / 
&RAMP ID='t', T=    0.168706800788 / 
&RAMP ID='t', T=    0.169056501100 / 
&RAMP ID='t', T=    0.169406201412 / 
&RAMP ID='t', T=    0.169755901725 / 
&RAMP ID='t', T=    0.170105602037 / 
&RAMP ID='t', T=    0.170455302349 / 
&RAMP ID='t', T=    0.170805002662 / 
&RAMP ID='t', T=    0.171154702974 / 
&RAMP ID='t', T=    0.171504403286 / 
&RAMP ID='t', T=    0.171854103598 / 
&RAMP ID='t', T=    0.172203803911 / 
&RAMP ID='t', T=    0.172463121903 / 
&RAMP ID='t', T=    0.172722439896 / 
&RAMP ID='t', T=    0.172981757889 / 
&RAMP ID='t', T=    0.173241075882 / 
&RAMP ID='t', T=    0.173500393874 / 
&RAMP ID='t', T=    0.173759711867 / 
&RAMP ID='t', T=    0.174019029860 / 
&RAMP ID='t', T=    0.174278347853 / 
&RAMP ID='t', T=    0.174537665845 / 
&RAMP ID='t', T=    0.174796983838 / 
&RAMP ID='t', T=    0.175056301831 / 
&RAMP ID='t', T=    0.175315619824 / 
&RAMP ID='t', T=    0.175574937816 / 
&RAMP ID='t', T=    0.175834255809 / 
&RAMP ID='t', T=    0.176093573802 / 
&RAMP ID='t', T=    0.176352891795 / 
&RAMP ID='t', T=    0.176612209788 / 
&RAMP ID='t', T=    0.176871527780 / 
&RAMP ID='t', T=    0.177130845773 / 
&RAMP ID='t', T=    0.177390163766 / 
&RAMP ID='t', T=    0.177649481759 / 
&RAMP ID='t', T=    0.177908799751 / 
&RAMP ID='t', T=    0.178168117744 / 
&RAMP ID='t', T=    0.178427435737 / 
&RAMP ID='t', T=    0.178686753730 / 
&RAMP ID='t', T=    0.178946071722 / 
&RAMP ID='t', T=    0.179205389715 / 
&RAMP ID='t', T=    0.179464707708 / 
&RAMP ID='t', T=    0.179724025701 / 
&RAMP ID='t', T=    0.179983343693 / 
&RAMP ID='t', T=    0.180242661686 / 
&RAMP ID='t', T=    0.180501979679 / 
&RAMP ID='t', T=    0.180761297672 / 
&RAMP ID='t', T=    0.181020615664 / 
&RAMP ID='t', T=    0.181279933657 / 
&RAMP ID='t', T=    0.181539251650 / 
&RAMP ID='t', T=    0.181798569643 / 
&RAMP ID='t', T=    0.182057887635 / 
&RAMP ID='t', T=    0.182317205628 / 
&RAMP ID='t', T=    0.182576523621 / 
&RAMP ID='t', T=    0.182748098511 / 
&RAMP ID='t', T=    0.182868510355 / 
&RAMP ID='t', T=    0.182988922199 / 
&RAMP ID='t', T=    0.183109334043 / 
&RAMP ID='t', T=    0.183229745887 / 
&RAMP ID='t', T=    0.183350157731 / 
&RAMP ID='t', T=    0.183470569575 / 
&RAMP ID='t', T=    0.183590981419 / 
&RAMP ID='t', T=    0.183711393263 / 
&RAMP ID='t', T=    0.183831805107 / 
&RAMP ID='t', T=    0.183952216951 / 
&RAMP ID='t', T=    0.184072628795 / 
&RAMP ID='t', T=    0.184193040639 / 
&RAMP ID='t', T=    0.184313452483 / 
&RAMP ID='t', T=    0.184402616488 / 
&RAMP ID='t', T=    0.184466425155 / 
&RAMP ID='t', T=    0.184513176783 / 
&RAMP ID='t', T=    0.184559928411 / 
&RAMP ID='t', T=    0.184606680039 / 
&RAMP ID='t', T=    0.184653431667 / 
&RAMP ID='t', T=    0.184700183295 / 
&RAMP ID='t', T=    0.184746934923 / 
&RAMP ID='t', T=    0.184793686551 / 
&RAMP ID='t', T=    0.184869427316 / 
&RAMP ID='t', T=    0.184945168081 / 
&RAMP ID='t', T=    0.185020908845 / 
&RAMP ID='t', T=    0.185096649610 / 
&RAMP ID='t', T=    0.185172390375 / 
&RAMP ID='t', T=    0.185293351782 / 
&RAMP ID='t', T=    0.185414313190 / 
&RAMP ID='t', T=    0.185535274597 / 
&RAMP ID='t', T=    0.185656236005 / 
&RAMP ID='t', T=    0.185777197412 / 
&RAMP ID='t', T=    0.185976976684 / 
&RAMP ID='t', T=    0.186176755957 / 
&RAMP ID='t', T=    0.186376535229 / 
&RAMP ID='t', T=    0.186576314502 / 
&RAMP ID='t', T=    0.186776093774 / 
&RAMP ID='t', T=    0.186975873047 / 
&RAMP ID='t', T=    0.187175652319 / 
&RAMP ID='t', T=    0.187375431592 / 
&RAMP ID='t', T=    0.187575210864 / 
&RAMP ID='t', T=    0.187774990137 / 
&RAMP ID='t', T=    0.187974769409 / 
&RAMP ID='t', T=    0.188174548682 / 
&RAMP ID='t', T=    0.188374327954 / 
&RAMP ID='t', T=    0.188520180167 / 
&RAMP ID='t', T=    0.188666032380 / 
&RAMP ID='t', T=    0.188811884593 / 
&RAMP ID='t', T=    0.188957736806 / 
&RAMP ID='t', T=    0.189103589019 / 
&RAMP ID='t', T=    0.189249441232 / 
&RAMP ID='t', T=    0.189395293445 / 
&RAMP ID='t', T=    0.189541145659 / 
&RAMP ID='t', T=    0.189686997872 / 
&RAMP ID='t', T=    0.189832850085 / 
&RAMP ID='t', T=    0.189978702298 / 
&RAMP ID='t', T=    0.190124554511 / 
&RAMP ID='t', T=    0.190231199840 / 
&RAMP ID='t', T=    0.190337845170 / 
&RAMP ID='t', T=    0.190444490499 / 
&RAMP ID='t', T=    0.190551135829 / 
&RAMP ID='t', T=    0.190657781158 / 
&RAMP ID='t', T=    0.190764426488 / 
&RAMP ID='t', T=    0.190871071817 / 
&RAMP ID='t', T=    0.190977717147 / 
&RAMP ID='t', T=    0.191084362477 / 
&RAMP ID='t', T=    0.191191007806 / 
&RAMP ID='t', T=    0.191297653136 / 
&RAMP ID='t', T=    0.191404298465 / 
&RAMP ID='t', T=    0.191510943795 / 
&RAMP ID='t', T=    0.191617589124 / 
&RAMP ID='t', T=    0.191724234454 / 
&RAMP ID='t', T=    0.191830879783 / 
&RAMP ID='t', T=    0.191937525113 / 
&RAMP ID='t', T=    0.192044170443 / 
&RAMP ID='t', T=    0.192150815772 / 
&RAMP ID='t', T=    0.192257461102 / 
&RAMP ID='t', T=    0.192364106431 / 
&RAMP ID='t', T=    0.192470751761 / 
&RAMP ID='t', T=    0.192577397090 / 
&RAMP ID='t', T=    0.192684042420 / 
&RAMP ID='t', T=    0.192790687749 / 
&RAMP ID='t', T=    0.192897333079 / 
&RAMP ID='t', T=    0.193003978409 / 
&RAMP ID='t', T=    0.193110623738 / 
&RAMP ID='t', T=    0.193189354300 / 
&RAMP ID='t', T=    0.193268084861 / 
&RAMP ID='t', T=    0.193346815422 / 
&RAMP ID='t', T=    0.193425545984 / 
&RAMP ID='t', T=    0.193504276545 / 
&RAMP ID='t', T=    0.193583007107 / 
&RAMP ID='t', T=    0.193641236708 / 
&RAMP ID='t', T=    0.193683974889 / 
&RAMP ID='t', T=    0.193726713070 / 
&RAMP ID='t', T=    0.193769451251 / 
&RAMP ID='t', T=    0.193812189432 / 
&RAMP ID='t', T=    0.193854927613 / 
&RAMP ID='t', T=    0.193885726513 / 
&RAMP ID='t', T=    0.193907751424 / 
&RAMP ID='t', T=    0.193929776334 / 
&RAMP ID='t', T=    0.193951801245 / 
&RAMP ID='t', T=    0.193973826155 / 
&RAMP ID='t', T=    0.193995851066 / 
&RAMP ID='t', T=    0.194017875977 / 
&RAMP ID='t', T=    0.194039900887 / 
&RAMP ID='t', T=    0.194055642542 / 
&RAMP ID='t', T=    0.194066605694 / 
&RAMP ID='t', T=    0.194074674607 / 
&RAMP ID='t', T=    0.194082743520 / 
&RAMP ID='t', T=    0.194090812434 / 
&RAMP ID='t', T=    0.194098881347 / 
&RAMP ID='t', T=    0.194106950261 / 
&RAMP ID='t', T=    0.194115019174 / 
&RAMP ID='t', T=    0.194120748588 / 
&RAMP ID='t', T=    0.194124917933 / 
&RAMP ID='t', T=    0.194129087278 / 
&RAMP ID='t', T=    0.194133256622 / 
&RAMP ID='t', T=    0.194137425967 / 
&RAMP ID='t', T=    0.194141595312 / 
&RAMP ID='t', T=    0.194145764657 / 
&RAMP ID='t', T=    0.194149934002 / 
&RAMP ID='t', T=    0.194154103346 / 
&RAMP ID='t', T=    0.194158272691 / 
&RAMP ID='t', T=    0.194161334456 / 
&RAMP ID='t', T=    0.194164396220 / 
&RAMP ID='t', T=    0.194167457985 / 
&RAMP ID='t', T=    0.194170519749 / 
&RAMP ID='t', T=    0.194173581514 / 
&RAMP ID='t', T=    0.194176643278 / 
&RAMP ID='t', T=    0.194179705043 / 
&RAMP ID='t', T=    0.194182766807 / 
&RAMP ID='t', T=    0.194185828572 / 
&RAMP ID='t', T=    0.194188890337 / 
&RAMP ID='t', T=    0.194191952101 / 
&RAMP ID='t', T=    0.194195013866 / 
&RAMP ID='t', T=    0.194197233246 / 
&RAMP ID='t', T=    0.194198861334 / 
&RAMP ID='t', T=    0.194200489422 / 
&RAMP ID='t', T=    0.194202117511 / 
&RAMP ID='t', T=    0.194203745599 / 
&RAMP ID='t', T=    0.194205373687 / 
&RAMP ID='t', T=    0.194207001775 / 
&RAMP ID='t', T=    0.194208629863 / 
&RAMP ID='t', T=    0.194210257951 / 
&RAMP ID='t', T=    0.194211886040 / 
&RAMP ID='t', T=    0.194214432873 / 
&RAMP ID='t', T=    0.194216979707 / 
&RAMP ID='t', T=    0.194219526540 / 
&RAMP ID='t', T=    0.194222073374 / 
&RAMP ID='t', T=    0.194226475450 / 
&RAMP ID='t', T=    0.194230877526 / 
&RAMP ID='t', T=    0.194235279601 / 
&RAMP ID='t', T=    0.194246633127 / 
&RAMP ID='t', T=    0.194265590704 / 
&RAMP ID='t', T=    0.194284548282 / 
&RAMP ID='t', T=    0.194303505859 / 
&RAMP ID='t', T=    0.194322463437 / 
&RAMP ID='t', T=    0.194341421014 / 
&RAMP ID='t', T=    0.194362766508 / 
&RAMP ID='t', T=    0.194384112003 / 
&RAMP ID='t', T=    0.194405457497 / 
&RAMP ID='t', T=    0.194426802991 / 
&RAMP ID='t', T=    0.194462416531 / 
&RAMP ID='t', T=    0.194498030070 / 
&RAMP ID='t', T=    0.194533643609 / 
&RAMP ID='t', T=    0.194569257149 / 
&RAMP ID='t', T=    0.194604870688 / 
&RAMP ID='t', T=    0.194640484228 / 
&RAMP ID='t', T=    0.194676097767 / 
&RAMP ID='t', T=    0.194711711306 / 
&RAMP ID='t', T=    0.194747324846 / 
&RAMP ID='t', T=    0.194782938385 / 
&RAMP ID='t', T=    0.194818551924 / 
&RAMP ID='t', T=    0.194854165464 / 
&RAMP ID='t', T=    0.194889779003 / 
&RAMP ID='t', T=    0.194925392543 / 
&RAMP ID='t', T=    0.194961006082 / 
&RAMP ID='t', T=    0.194996619621 / 
&RAMP ID='t', T=    0.195032233161 / 
&RAMP ID='t', T=    0.195067846700 / 
&RAMP ID='t', T=    0.195103460239 / 
&RAMP ID='t', T=    0.195139073779 / 
&RAMP ID='t', T=    0.195174687318 / 
&RAMP ID='t', T=    0.195210300858 / 
&RAMP ID='t', T=    0.195245914397 / 
&RAMP ID='t', T=    0.195270733172 / 
&RAMP ID='t', T=    0.195295551947 / 
&RAMP ID='t', T=    0.195320370722 / 
&RAMP ID='t', T=    0.195345189496 / 
&RAMP ID='t', T=    0.195370008271 / 
&RAMP ID='t', T=    0.195394827046 / 
&RAMP ID='t', T=    0.195419645821 / 
&RAMP ID='t', T=    0.195444464596 / 
&RAMP ID='t', T=    0.195469283371 / 
&RAMP ID='t', T=    0.195494102146 / 
&RAMP ID='t', T=    0.195511351236 / 
&RAMP ID='t', T=    0.195528600327 / 
&RAMP ID='t', T=    0.195545849418 / 
&RAMP ID='t', T=    0.195563098509 / 
&RAMP ID='t', T=    0.195580347600 / 
&RAMP ID='t', T=    0.195597596690 / 
&RAMP ID='t', T=    0.195614845781 / 
&RAMP ID='t', T=    0.195632094872 / 
&RAMP ID='t', T=    0.195649343963 / 
&RAMP ID='t', T=    0.195666593054 / 
&RAMP ID='t', T=    0.195683842144 / 
&RAMP ID='t', T=    0.195712000699 / 
&RAMP ID='t', T=    0.195740159254 / 
&RAMP ID='t', T=    0.195768317809 / 
&RAMP ID='t', T=    0.195796476364 / 
&RAMP ID='t', T=    0.195824634919 / 
&RAMP ID='t', T=    0.195852793474 / 
&RAMP ID='t', T=    0.195880952029 / 
&RAMP ID='t', T=    0.195909110584 / 
&RAMP ID='t', T=    0.195937269139 / 
&RAMP ID='t', T=    0.195965427694 / 
&RAMP ID='t', T=    0.195993586249 / 
&RAMP ID='t', T=    0.196021744804 / 
&RAMP ID='t', T=    0.196049903359 / 
&RAMP ID='t', T=    0.196078061914 / 
&RAMP ID='t', T=    0.196098798895 / 
&RAMP ID='t', T=    0.196113639255 / 
&RAMP ID='t', T=    0.196124534913 / 
&RAMP ID='t', T=    0.196135430571 / 
&RAMP ID='t', T=    0.196146326230 / 
&RAMP ID='t', T=    0.196157221888 / 
&RAMP ID='t', T=    0.196168117546 / 
&RAMP ID='t', T=    0.196179013205 / 
&RAMP ID='t', T=    0.196187036727 / 
&RAMP ID='t', T=    0.196192825171 / 
&RAMP ID='t', T=    0.196198613616 / 
&RAMP ID='t', T=    0.196204402060 / 
&RAMP ID='t', T=    0.196210190504 / 
&RAMP ID='t', T=    0.196215978948 / 
&RAMP ID='t', T=    0.196221767392 / 
&RAMP ID='t', T=    0.196225870698 / 
&RAMP ID='t', T=    0.196228764589 / 
&RAMP ID='t', T=    0.196231658479 / 
&RAMP ID='t', T=    0.196234552370 / 
&RAMP ID='t', T=    0.196237446261 / 
&RAMP ID='t', T=    0.196240340151 / 
&RAMP ID='t', T=    0.196243234042 / 
&RAMP ID='t', T=    0.196246127932 / 
&RAMP ID='t', T=    0.196249021823 / 
&RAMP ID='t', T=    0.196251915713 / 
&RAMP ID='t', T=    0.196254809604 / 
&RAMP ID='t', T=    0.196257703495 / 
&RAMP ID='t', T=    0.196260597385 / 
&RAMP ID='t', T=    0.196263491276 / 
&RAMP ID='t', T=    0.196265615576 / 
&RAMP ID='t', T=    0.196267188430 / 
&RAMP ID='t', T=    0.196268761284 / 
&RAMP ID='t', T=    0.196270334138 / 
&RAMP ID='t', T=    0.196271906992 / 
&RAMP ID='t', T=    0.196273479846 / 
&RAMP ID='t', T=    0.196275052701 / 
&RAMP ID='t', T=    0.196276625555 / 
&RAMP ID='t', T=    0.196278198409 / 
&RAMP ID='t', T=    0.196279771263 / 
&RAMP ID='t', T=    0.196281344117 / 
&RAMP ID='t', T=    0.196282916971 / 
&RAMP ID='t', T=    0.196284489826 / 
&RAMP ID='t', T=    0.196286895389 / 
&RAMP ID='t', T=    0.196289300952 / 
&RAMP ID='t', T=    0.196291706516 / 
&RAMP ID='t', T=    0.196294112079 / 
&RAMP ID='t', T=    0.196296517643 / 
&RAMP ID='t', T=    0.196301972716 / 
&RAMP ID='t', T=    0.196307427789 / 
&RAMP ID='t', T=    0.196312882862 / 
&RAMP ID='t', T=    0.196318337935 / 
&RAMP ID='t', T=    0.196327794318 / 
&RAMP ID='t', T=    0.196337250702 / 
&RAMP ID='t', T=    0.196346707085 / 
&RAMP ID='t', T=    0.196356163469 / 
&RAMP ID='t', T=    0.196365619852 / 
&RAMP ID='t', T=    0.196384356100 / 
&RAMP ID='t', T=    0.196403092347 / 
&RAMP ID='t', T=    0.196421828595 / 
&RAMP ID='t', T=    0.196440564842 / 
&RAMP ID='t', T=    0.196459301089 / 
&RAMP ID='t', T=    0.196478037337 / 
&RAMP ID='t', T=    0.196496773584 / 
&RAMP ID='t', T=    0.196515509831 / 
&RAMP ID='t', T=    0.196534246079 / 
&RAMP ID='t', T=    0.196552982326 / 
&RAMP ID='t', T=    0.196571718574 / 
&RAMP ID='t', T=    0.196590454821 / 
&RAMP ID='t', T=    0.196609191068 / 
&RAMP ID='t', T=    0.196627927316 / 
&RAMP ID='t', T=    0.196646663563 / 
&RAMP ID='t', T=    0.196660172755 / 
&RAMP ID='t', T=    0.196669700652 / 
&RAMP ID='t', T=    0.196676621685 / 
&RAMP ID='t', T=    0.196683542719 / 
&RAMP ID='t', T=    0.196690463752 / 
&RAMP ID='t', T=    0.196697384785 / 
&RAMP ID='t', T=    0.196704305818 / 
&RAMP ID='t', T=    0.196711226851 / 
&RAMP ID='t', T=    0.196718147884 / 
&RAMP ID='t', T=    0.196723077927 / 
&RAMP ID='t', T=    0.196726495771 / 
&RAMP ID='t', T=    0.196728967324 / 
&RAMP ID='t', T=    0.196731438878 / 
&RAMP ID='t', T=    0.196733910431 / 
&RAMP ID='t', T=    0.196736381984 / 
&RAMP ID='t', T=    0.196738853538 / 
&RAMP ID='t', T=    0.196741325091 / 
&RAMP ID='t', T=    0.196743796644 / 
&RAMP ID='t', T=    0.196746268198 / 
&RAMP ID='t', T=    0.196748739751 / 
&RAMP ID='t', T=    0.196751211304 / 
&RAMP ID='t', T=    0.196753682858 / 
&RAMP ID='t', T=    0.196757936170 / 
&RAMP ID='t', T=    0.196762189482 / 
&RAMP ID='t', T=    0.196766442794 / 
&RAMP ID='t', T=    0.196770696106 / 
&RAMP ID='t', T=    0.196779831151 / 
&RAMP ID='t', T=    0.196788966196 / 
&RAMP ID='t', T=    0.196798101241 / 