&HEAD CHID='ignition_delay_T1200K_Phi0p6', TITLE='ignition_delay T=1200K Phi=0.6' /

&MISC GVEC(3)=0.0, NOISE=F, STRATIFICATION=F, SIMULATION_MODE='DNS' /

&RADI RADIATION=F/
&SURF ID='DEF',DEFAULT=T,ADIABATIC=T/

&COMB FINITE_RATE_MIN_TEMP=300,ZZ_MIN_GLOBAL=1E-15,INITIAL_UNMIXED_FRACTION=0.0,ODE_SOLVER='CVODE',ODE_MIN_ATOL=1E-15,ODE_REL_ERROR=1E-9/
&TIME T_END=10, RAMP_TIME='t' /
&DUMP DT_DEVC=1e-20/

&CATF OTHER_FILES='../../Utilities/Input_Libraries/Chemical_Mechanisms/FDS/grimech30.fds' /

&MESH IJK=5,1,5, XB=0.0,1.0,0.0,0.2,0.0,1.0 /
&OBST XB=0.0,1.0,0.0,0.2,0.0,1.0/
&HOLE XB=0.4,0.6,-1.0,1.0,0.4,0.6/
&INIT XB=0.4,0.6,-1.0,1.0,0.4,0.6, MASS_FRACTION(1)=0.22511048, SPEC_ID(1)='O2',MASS_FRACTION(2)=0.03385944,SPEC_ID(2)='CH4',  TEMPERATURE=926.85 /
&DEVC XYZ=0.5,0.0,0.5, QUANTITY='MASS FRACTION', SPEC_ID='OH',  ID='OH' /
&DEVC XYZ=0.5,0.0,0.5, QUANTITY='TEMPERATURE', ID='TMP'/

&RAMP ID='t', T=    0.000000004591 / 
&RAMP ID='t', T=    0.000000050493 / 
&RAMP ID='t', T=    0.000000096395 / 
&RAMP ID='t', T=    0.000000173365 / 
&RAMP ID='t', T=    0.000000291868 / 
&RAMP ID='t', T=    0.000000410372 / 
&RAMP ID='t', T=    0.000000528876 / 
&RAMP ID='t', T=    0.000000647380 / 
&RAMP ID='t', T=    0.000000765884 / 
&RAMP ID='t', T=    0.000000884387 / 
&RAMP ID='t', T=    0.000001076483 / 
&RAMP ID='t', T=    0.000001268579 / 
&RAMP ID='t', T=    0.000001460674 / 
&RAMP ID='t', T=    0.000001652770 / 
&RAMP ID='t', T=    0.000001844866 / 
&RAMP ID='t', T=    0.000002036962 / 
&RAMP ID='t', T=    0.000002378041 / 
&RAMP ID='t', T=    0.000002719121 / 
&RAMP ID='t', T=    0.000003060201 / 
&RAMP ID='t', T=    0.000003590389 / 
&RAMP ID='t', T=    0.000004120578 / 
&RAMP ID='t', T=    0.000004650766 / 
&RAMP ID='t', T=    0.000005180954 / 
&RAMP ID='t', T=    0.000005711143 / 
&RAMP ID='t', T=    0.000006241331 / 
&RAMP ID='t', T=    0.000006771520 / 
&RAMP ID='t', T=    0.000007301708 / 
&RAMP ID='t', T=    0.000008100861 / 
&RAMP ID='t', T=    0.000008900015 / 
&RAMP ID='t', T=    0.000009699168 / 
&RAMP ID='t', T=    0.000010498322 / 
&RAMP ID='t', T=    0.000011297475 / 
&RAMP ID='t', T=    0.000012096629 / 
&RAMP ID='t', T=    0.000013319104 / 
&RAMP ID='t', T=    0.000014541579 / 
&RAMP ID='t', T=    0.000015764055 / 
&RAMP ID='t', T=    0.000016986530 / 
&RAMP ID='t', T=    0.000018209005 / 
&RAMP ID='t', T=    0.000020171770 / 
&RAMP ID='t', T=    0.000022134535 / 
&RAMP ID='t', T=    0.000025268565 / 
&RAMP ID='t', T=    0.000028402595 / 
&RAMP ID='t', T=    0.000031536625 / 
&RAMP ID='t', T=    0.000034670655 / 
&RAMP ID='t', T=    0.000040163788 / 
&RAMP ID='t', T=    0.000045656921 / 
&RAMP ID='t', T=    0.000051150054 / 
&RAMP ID='t', T=    0.000056643187 / 
&RAMP ID='t', T=    0.000065512540 / 
&RAMP ID='t', T=    0.000074381893 / 
&RAMP ID='t', T=    0.000083251246 / 
&RAMP ID='t', T=    0.000092120599 / 
&RAMP ID='t', T=    0.000100989952 / 
&RAMP ID='t', T=    0.000109859305 / 
&RAMP ID='t', T=    0.000118728658 / 
&RAMP ID='t', T=    0.000127598011 / 
&RAMP ID='t', T=    0.000141856360 / 
&RAMP ID='t', T=    0.000156114708 / 
&RAMP ID='t', T=    0.000170373057 / 
&RAMP ID='t', T=    0.000184631406 / 
&RAMP ID='t', T=    0.000198889755 / 
&RAMP ID='t', T=    0.000213148103 / 
&RAMP ID='t', T=    0.000227406452 / 
&RAMP ID='t', T=    0.000249477184 / 
&RAMP ID='t', T=    0.000271547915 / 
&RAMP ID='t', T=    0.000293618647 / 
&RAMP ID='t', T=    0.000315689378 / 
&RAMP ID='t', T=    0.000337760110 / 
&RAMP ID='t', T=    0.000359830841 / 
&RAMP ID='t', T=    0.000381901573 / 
&RAMP ID='t', T=    0.000403972305 / 
&RAMP ID='t', T=    0.000440300075 / 
&RAMP ID='t', T=    0.000476627846 / 
&RAMP ID='t', T=    0.000502697387 / 
&RAMP ID='t', T=    0.000528766928 / 
&RAMP ID='t', T=    0.000554836469 / 
&RAMP ID='t', T=    0.000580906009 / 
&RAMP ID='t', T=    0.000606975550 / 
&RAMP ID='t', T=    0.000633045091 / 
&RAMP ID='t', T=    0.000659114632 / 
&RAMP ID='t', T=    0.000685184172 / 
&RAMP ID='t', T=    0.000726662799 / 
&RAMP ID='t', T=    0.000768141425 / 
&RAMP ID='t', T=    0.000809620051 / 
&RAMP ID='t', T=    0.000851098678 / 
&RAMP ID='t', T=    0.000892577304 / 
&RAMP ID='t', T=    0.000934055930 / 
&RAMP ID='t', T=    0.000975534557 / 
&RAMP ID='t', T=    0.001017013183 / 
&RAMP ID='t', T=    0.001058491809 / 
&RAMP ID='t', T=    0.001099970436 / 
&RAMP ID='t', T=    0.001141449062 / 
&RAMP ID='t', T=    0.001182927688 / 
&RAMP ID='t', T=    0.001224406315 / 
&RAMP ID='t', T=    0.001265884941 / 
&RAMP ID='t', T=    0.001307363567 / 
&RAMP ID='t', T=    0.001348842194 / 
&RAMP ID='t', T=    0.001390320820 / 
&RAMP ID='t', T=    0.001431799446 / 
&RAMP ID='t', T=    0.001473278073 / 
&RAMP ID='t', T=    0.001514756699 / 
&RAMP ID='t', T=    0.001556235325 / 
&RAMP ID='t', T=    0.001597713952 / 
&RAMP ID='t', T=    0.001639192578 / 
&RAMP ID='t', T=    0.001680671204 / 
&RAMP ID='t', T=    0.001722149831 / 
&RAMP ID='t', T=    0.001763628457 / 
&RAMP ID='t', T=    0.001805107083 / 
&RAMP ID='t', T=    0.001846585710 / 
&RAMP ID='t', T=    0.001888064336 / 
&RAMP ID='t', T=    0.001929542962 / 
&RAMP ID='t', T=    0.001971021589 / 
&RAMP ID='t', T=    0.002012500215 / 
&RAMP ID='t', T=    0.002053978841 / 
&RAMP ID='t', T=    0.002095457468 / 
&RAMP ID='t', T=    0.002136936094 / 
&RAMP ID='t', T=    0.002178414720 / 
&RAMP ID='t', T=    0.002219893347 / 
&RAMP ID='t', T=    0.002261371973 / 
&RAMP ID='t', T=    0.002302850599 / 
&RAMP ID='t', T=    0.002344329226 / 
&RAMP ID='t', T=    0.002385807852 / 
&RAMP ID='t', T=    0.002427286478 / 
&RAMP ID='t', T=    0.002468765105 / 
&RAMP ID='t', T=    0.002510243731 / 
&RAMP ID='t', T=    0.002551722357 / 
&RAMP ID='t', T=    0.002593200984 / 
&RAMP ID='t', T=    0.002634679610 / 
&RAMP ID='t', T=    0.002676158236 / 
&RAMP ID='t', T=    0.002717636863 / 
&RAMP ID='t', T=    0.002759115489 / 
&RAMP ID='t', T=    0.002800594115 / 
&RAMP ID='t', T=    0.002842072742 / 
&RAMP ID='t', T=    0.002883551368 / 
&RAMP ID='t', T=    0.002925029994 / 
&RAMP ID='t', T=    0.002966508621 / 
&RAMP ID='t', T=    0.003007987247 / 
&RAMP ID='t', T=    0.003049465873 / 
&RAMP ID='t', T=    0.003090944500 / 
&RAMP ID='t', T=    0.003132423126 / 
&RAMP ID='t', T=    0.003173901752 / 
&RAMP ID='t', T=    0.003215380379 / 
&RAMP ID='t', T=    0.003256859005 / 
&RAMP ID='t', T=    0.003298337631 / 
&RAMP ID='t', T=    0.003339816258 / 
&RAMP ID='t', T=    0.003381294884 / 
&RAMP ID='t', T=    0.003422773510 / 
&RAMP ID='t', T=    0.003464252137 / 
&RAMP ID='t', T=    0.003505730763 / 
&RAMP ID='t', T=    0.003547209389 / 
&RAMP ID='t', T=    0.003588688016 / 
&RAMP ID='t', T=    0.003630166642 / 
&RAMP ID='t', T=    0.003671645268 / 
&RAMP ID='t', T=    0.003713123895 / 
&RAMP ID='t', T=    0.003754602521 / 
&RAMP ID='t', T=    0.003796081147 / 
&RAMP ID='t', T=    0.003837559774 / 
&RAMP ID='t', T=    0.003879038400 / 
&RAMP ID='t', T=    0.003920517026 / 
&RAMP ID='t', T=    0.003961995653 / 
&RAMP ID='t', T=    0.004003474279 / 
&RAMP ID='t', T=    0.004044952905 / 
&RAMP ID='t', T=    0.004086431532 / 
&RAMP ID='t', T=    0.004127910158 / 
&RAMP ID='t', T=    0.004169388784 / 
&RAMP ID='t', T=    0.004210867411 / 
&RAMP ID='t', T=    0.004252346037 / 
&RAMP ID='t', T=    0.004293824663 / 
&RAMP ID='t', T=    0.004335303290 / 
&RAMP ID='t', T=    0.004397778748 / 
&RAMP ID='t', T=    0.004460254205 / 
&RAMP ID='t', T=    0.004522729663 / 
&RAMP ID='t', T=    0.004585205121 / 
&RAMP ID='t', T=    0.004647680579 / 
&RAMP ID='t', T=    0.004710156037 / 
&RAMP ID='t', T=    0.004772631494 / 
&RAMP ID='t', T=    0.004835106952 / 
&RAMP ID='t', T=    0.004897582410 / 
&RAMP ID='t', T=    0.004960057868 / 
&RAMP ID='t', T=    0.005022533326 / 
&RAMP ID='t', T=    0.005085008783 / 
&RAMP ID='t', T=    0.005147484241 / 
&RAMP ID='t', T=    0.005209959699 / 
&RAMP ID='t', T=    0.005304593931 / 
&RAMP ID='t', T=    0.005399228163 / 
&RAMP ID='t', T=    0.005493862395 / 
&RAMP ID='t', T=    0.005588496627 / 
&RAMP ID='t', T=    0.005683130859 / 
&RAMP ID='t', T=    0.005777765091 / 
&RAMP ID='t', T=    0.005872399323 / 
&RAMP ID='t', T=    0.005967033555 / 
&RAMP ID='t', T=    0.006061667787 / 
&RAMP ID='t', T=    0.006156302019 / 
&RAMP ID='t', T=    0.006250936251 / 
&RAMP ID='t', T=    0.006345570483 / 
&RAMP ID='t', T=    0.006440204715 / 
&RAMP ID='t', T=    0.006534838947 / 
&RAMP ID='t', T=    0.006629473179 / 
&RAMP ID='t', T=    0.006724107411 / 
&RAMP ID='t', T=    0.006818741643 / 
&RAMP ID='t', T=    0.006913375875 / 
&RAMP ID='t', T=    0.007008010107 / 
&RAMP ID='t', T=    0.007102644339 / 
&RAMP ID='t', T=    0.007197278571 / 
&RAMP ID='t', T=    0.007291912803 / 
&RAMP ID='t', T=    0.007386547035 / 
&RAMP ID='t', T=    0.007481181267 / 
&RAMP ID='t', T=    0.007575815499 / 
&RAMP ID='t', T=    0.007670449731 / 
&RAMP ID='t', T=    0.007765083963 / 
&RAMP ID='t', T=    0.007859718195 / 
&RAMP ID='t', T=    0.007954352427 / 
&RAMP ID='t', T=    0.008048986659 / 
&RAMP ID='t', T=    0.008143620891 / 
&RAMP ID='t', T=    0.008286277358 / 
&RAMP ID='t', T=    0.008428933824 / 
&RAMP ID='t', T=    0.008571590291 / 
&RAMP ID='t', T=    0.008714246758 / 
&RAMP ID='t', T=    0.008856903225 / 
&RAMP ID='t', T=    0.008999559691 / 
&RAMP ID='t', T=    0.009142216158 / 
&RAMP ID='t', T=    0.009284872625 / 
&RAMP ID='t', T=    0.009427529091 / 
&RAMP ID='t', T=    0.009570185558 / 
&RAMP ID='t', T=    0.009712842025 / 
&RAMP ID='t', T=    0.009855498491 / 
&RAMP ID='t', T=    0.009998154958 / 
&RAMP ID='t', T=    0.010140811425 / 
&RAMP ID='t', T=    0.010283467892 / 
&RAMP ID='t', T=    0.010426124358 / 
&RAMP ID='t', T=    0.010568780825 / 
&RAMP ID='t', T=    0.010711437292 / 
&RAMP ID='t', T=    0.010854093758 / 
&RAMP ID='t', T=    0.010996750225 / 
&RAMP ID='t', T=    0.011139406692 / 
&RAMP ID='t', T=    0.011282063158 / 
&RAMP ID='t', T=    0.011424719625 / 
&RAMP ID='t', T=    0.011653217678 / 
&RAMP ID='t', T=    0.011881715731 / 
&RAMP ID='t', T=    0.012110213784 / 
&RAMP ID='t', T=    0.012338711837 / 
&RAMP ID='t', T=    0.012567209890 / 
&RAMP ID='t', T=    0.012795707943 / 
&RAMP ID='t', T=    0.013024205996 / 
&RAMP ID='t', T=    0.013252704049 / 
&RAMP ID='t', T=    0.013481202102 / 
&RAMP ID='t', T=    0.013709700155 / 
&RAMP ID='t', T=    0.013938198208 / 
&RAMP ID='t', T=    0.014166696261 / 
&RAMP ID='t', T=    0.014395194314 / 
&RAMP ID='t', T=    0.014623692367 / 
&RAMP ID='t', T=    0.014852190420 / 
&RAMP ID='t', T=    0.015080688473 / 
&RAMP ID='t', T=    0.015309186526 / 
&RAMP ID='t', T=    0.015537684579 / 
&RAMP ID='t', T=    0.015766182632 / 
&RAMP ID='t', T=    0.015994680685 / 
&RAMP ID='t', T=    0.016223178738 / 
&RAMP ID='t', T=    0.016451676791 / 
&RAMP ID='t', T=    0.016680174845 / 
&RAMP ID='t', T=    0.016908672898 / 
&RAMP ID='t', T=    0.017137170951 / 
&RAMP ID='t', T=    0.017365669004 / 
&RAMP ID='t', T=    0.017594167057 / 
&RAMP ID='t', T=    0.017822665110 / 
&RAMP ID='t', T=    0.018051163163 / 
&RAMP ID='t', T=    0.018279661216 / 
&RAMP ID='t', T=    0.018508159269 / 
&RAMP ID='t', T=    0.018736657322 / 
&RAMP ID='t', T=    0.018965155375 / 
&RAMP ID='t', T=    0.019130398842 / 
&RAMP ID='t', T=    0.019295642309 / 
&RAMP ID='t', T=    0.019460885776 / 
&RAMP ID='t', T=    0.019626129243 / 
&RAMP ID='t', T=    0.019791372710 / 
&RAMP ID='t', T=    0.019956616177 / 
&RAMP ID='t', T=    0.020121859645 / 
&RAMP ID='t', T=    0.020287103112 / 
&RAMP ID='t', T=    0.020452346579 / 
&RAMP ID='t', T=    0.020617590046 / 
&RAMP ID='t', T=    0.020782833513 / 
&RAMP ID='t', T=    0.020948076980 / 
&RAMP ID='t', T=    0.021113320447 / 
&RAMP ID='t', T=    0.021278563914 / 
&RAMP ID='t', T=    0.021443807382 / 
&RAMP ID='t', T=    0.021609050849 / 
&RAMP ID='t', T=    0.021729345146 / 
&RAMP ID='t', T=    0.021849639443 / 
&RAMP ID='t', T=    0.021969933741 / 
&RAMP ID='t', T=    0.022090228038 / 
&RAMP ID='t', T=    0.022210522336 / 
&RAMP ID='t', T=    0.022330816633 / 
&RAMP ID='t', T=    0.022451110930 / 
&RAMP ID='t', T=    0.022571405228 / 
&RAMP ID='t', T=    0.022691699525 / 
&RAMP ID='t', T=    0.022811993822 / 
&RAMP ID='t', T=    0.022932288120 / 
&RAMP ID='t', T=    0.023052582417 / 
&RAMP ID='t', T=    0.023172876715 / 
&RAMP ID='t', T=    0.023293171012 / 
&RAMP ID='t', T=    0.023413465309 / 
&RAMP ID='t', T=    0.023533759607 / 
&RAMP ID='t', T=    0.023654053904 / 
&RAMP ID='t', T=    0.023774348201 / 
&RAMP ID='t', T=    0.023894642499 / 
&RAMP ID='t', T=    0.024014936796 / 
&RAMP ID='t', T=    0.024135231094 / 
&RAMP ID='t', T=    0.024255525391 / 
&RAMP ID='t', T=    0.024375819688 / 
&RAMP ID='t', T=    0.024496113986 / 
&RAMP ID='t', T=    0.024616408283 / 
&RAMP ID='t', T=    0.024736702581 / 
&RAMP ID='t', T=    0.024856996878 / 
&RAMP ID='t', T=    0.024977291175 / 
&RAMP ID='t', T=    0.025097585473 / 
&RAMP ID='t', T=    0.025217879770 / 
&RAMP ID='t', T=    0.025338174067 / 
&RAMP ID='t', T=    0.025458468365 / 
&RAMP ID='t', T=    0.025578762662 / 
&RAMP ID='t', T=    0.025699056960 / 
&RAMP ID='t', T=    0.025819351257 / 
&RAMP ID='t', T=    0.025939645554 / 
&RAMP ID='t', T=    0.026026621377 / 
&RAMP ID='t', T=    0.026113597200 / 
&RAMP ID='t', T=    0.026200573022 / 
&RAMP ID='t', T=    0.026287548845 / 
&RAMP ID='t', T=    0.026351713474 / 
&RAMP ID='t', T=    0.026415878103 / 
&RAMP ID='t', T=    0.026480042732 / 
&RAMP ID='t', T=    0.026544207361 / 
&RAMP ID='t', T=    0.026591410858 / 
&RAMP ID='t', T=    0.026638614355 / 
&RAMP ID='t', T=    0.026685817852 / 
&RAMP ID='t', T=    0.026733021350 / 
&RAMP ID='t', T=    0.026780224847 / 
&RAMP ID='t', T=    0.026827428344 / 
&RAMP ID='t', T=    0.026874631841 / 
&RAMP ID='t', T=    0.026921835338 / 
&RAMP ID='t', T=    0.026969038835 / 
&RAMP ID='t', T=    0.027016242332 / 
&RAMP ID='t', T=    0.027063445829 / 
&RAMP ID='t', T=    0.027110649326 / 
&RAMP ID='t', T=    0.027157852823 / 
&RAMP ID='t', T=    0.027205056320 / 
&RAMP ID='t', T=    0.027239588270 / 
&RAMP ID='t', T=    0.027264761150 / 
&RAMP ID='t', T=    0.027289934030 / 
&RAMP ID='t', T=    0.027315106910 / 
&RAMP ID='t', T=    0.027340279790 / 
&RAMP ID='t', T=    0.027365452670 / 
&RAMP ID='t', T=    0.027390625550 / 
&RAMP ID='t', T=    0.027415798430 / 
&RAMP ID='t', T=    0.027440971310 / 
&RAMP ID='t', T=    0.027466144189 / 
&RAMP ID='t', T=    0.027505683480 / 
&RAMP ID='t', T=    0.027545222771 / 
&RAMP ID='t', T=    0.027584762062 / 
&RAMP ID='t', T=    0.027624301353 / 
&RAMP ID='t', T=    0.027663840644 / 
&RAMP ID='t', T=    0.027703379935 / 
&RAMP ID='t', T=    0.027742919226 / 
&RAMP ID='t', T=    0.027809714117 / 
&RAMP ID='t', T=    0.027876509009 / 
&RAMP ID='t', T=    0.027943303900 / 
&RAMP ID='t', T=    0.028010098791 / 
&RAMP ID='t', T=    0.028076893683 / 
&RAMP ID='t', T=    0.028143688574 / 
&RAMP ID='t', T=    0.028210483465 / 
&RAMP ID='t', T=    0.028277278357 / 
&RAMP ID='t', T=    0.028344073248 / 
&RAMP ID='t', T=    0.028410868140 / 
&RAMP ID='t', T=    0.028477663031 / 
&RAMP ID='t', T=    0.028544457922 / 
&RAMP ID='t', T=    0.028611252814 / 
&RAMP ID='t', T=    0.028678047705 / 
&RAMP ID='t', T=    0.028744842596 / 
&RAMP ID='t', T=    0.028811637488 / 
&RAMP ID='t', T=    0.028878432379 / 
&RAMP ID='t', T=    0.028945227270 / 
&RAMP ID='t', T=    0.029012022162 / 
&RAMP ID='t', T=    0.029078817053 / 
&RAMP ID='t', T=    0.029145611944 / 
&RAMP ID='t', T=    0.029212406836 / 
&RAMP ID='t', T=    0.029279201727 / 
&RAMP ID='t', T=    0.029345996619 / 
&RAMP ID='t', T=    0.029412791510 / 
&RAMP ID='t', T=    0.029479586401 / 
&RAMP ID='t', T=    0.029546381293 / 
&RAMP ID='t', T=    0.029594810996 / 
&RAMP ID='t', T=    0.029630322285 / 
&RAMP ID='t', T=    0.029665833573 / 
&RAMP ID='t', T=    0.029701344862 / 
&RAMP ID='t', T=    0.029736856150 / 
&RAMP ID='t', T=    0.029772367438 / 
&RAMP ID='t', T=    0.029807878727 / 
&RAMP ID='t', T=    0.029833869571 / 
&RAMP ID='t', T=    0.029852670735 / 
&RAMP ID='t', T=    0.029871471900 / 
&RAMP ID='t', T=    0.029890273064 / 
&RAMP ID='t', T=    0.029909074229 / 
&RAMP ID='t', T=    0.029927875393 / 
&RAMP ID='t', T=    0.029946676557 / 
&RAMP ID='t', T=    0.029965477722 / 
&RAMP ID='t', T=    0.029984278886 / 
&RAMP ID='t', T=    0.030003080051 / 
&RAMP ID='t', T=    0.030021881215 / 
&RAMP ID='t', T=    0.030051264209 / 
&RAMP ID='t', T=    0.030080647202 / 
&RAMP ID='t', T=    0.030110030195 / 
&RAMP ID='t', T=    0.030139413189 / 
&RAMP ID='t', T=    0.030168796182 / 
&RAMP ID='t', T=    0.030215657302 / 
&RAMP ID='t', T=    0.030262518421 / 
&RAMP ID='t', T=    0.030309379541 / 
&RAMP ID='t', T=    0.030356240661 / 
&RAMP ID='t', T=    0.030403101781 / 
&RAMP ID='t', T=    0.030449962900 / 
&RAMP ID='t', T=    0.030496824020 / 
&RAMP ID='t', T=    0.030543685140 / 
&RAMP ID='t', T=    0.030590546260 / 
&RAMP ID='t', T=    0.030637407379 / 
&RAMP ID='t', T=    0.030684268499 / 
&RAMP ID='t', T=    0.030731129619 / 
&RAMP ID='t', T=    0.030777990739 / 
&RAMP ID='t', T=    0.030824851858 / 
&RAMP ID='t', T=    0.030871712978 / 
&RAMP ID='t', T=    0.030918574098 / 
&RAMP ID='t', T=    0.030965435218 / 
&RAMP ID='t', T=    0.031012296337 / 
&RAMP ID='t', T=    0.031059157457 / 
&RAMP ID='t', T=    0.031092595116 / 
&RAMP ID='t', T=    0.031126032776 / 
&RAMP ID='t', T=    0.031159470435 / 
&RAMP ID='t', T=    0.031192908094 / 
&RAMP ID='t', T=    0.031217374696 / 
&RAMP ID='t', T=    0.031234738684 / 
&RAMP ID='t', T=    0.031247489011 / 
&RAMP ID='t', T=    0.031260239338 / 
&RAMP ID='t', T=    0.031272989666 / 
&RAMP ID='t', T=    0.031285739993 / 
&RAMP ID='t', T=    0.031298490320 / 
&RAMP ID='t', T=    0.031311240647 / 
&RAMP ID='t', T=    0.031323990974 / 
&RAMP ID='t', T=    0.031333220042 / 
&RAMP ID='t', T=    0.031339859354 / 
&RAMP ID='t', T=    0.031346498667 / 
&RAMP ID='t', T=    0.031353137979 / 
&RAMP ID='t', T=    0.031359777292 / 
&RAMP ID='t', T=    0.031366416604 / 
&RAMP ID='t', T=    0.031373055917 / 
&RAMP ID='t', T=    0.031377974885 / 
&RAMP ID='t', T=    0.031382893854 / 
&RAMP ID='t', T=    0.031387812823 / 
&RAMP ID='t', T=    0.031392731792 / 
&RAMP ID='t', T=    0.031397650761 / 
&RAMP ID='t', T=    0.031402569729 / 
&RAMP ID='t', T=    0.031407488698 / 
&RAMP ID='t', T=    0.031412407667 / 
&RAMP ID='t', T=    0.031417326636 / 
&RAMP ID='t', T=    0.031425055431 / 
&RAMP ID='t', T=    0.031432784225 / 
&RAMP ID='t', T=    0.031440513020 / 
&RAMP ID='t', T=    0.031448241815 / 
&RAMP ID='t', T=    0.031462909941 / 
&RAMP ID='t', T=    0.031477578067 / 
&RAMP ID='t', T=    0.031492246193 / 
&RAMP ID='t', T=    0.031506914319 / 
&RAMP ID='t', T=    0.031521582445 / 
&RAMP ID='t', T=    0.031544204803 / 
&RAMP ID='t', T=    0.031566827162 / 
&RAMP ID='t', T=    0.031589449520 / 
&RAMP ID='t', T=    0.031612071879 / 
&RAMP ID='t', T=    0.031634694237 / 
&RAMP ID='t', T=    0.031657316596 / 
&RAMP ID='t', T=    0.031679938955 / 
&RAMP ID='t', T=    0.031702561313 / 
&RAMP ID='t', T=    0.031725183672 / 
&RAMP ID='t', T=    0.031747806030 / 
&RAMP ID='t', T=    0.031770428389 / 
&RAMP ID='t', T=    0.031793050747 / 
&RAMP ID='t', T=    0.031815673106 / 
&RAMP ID='t', T=    0.031838295464 / 
&RAMP ID='t', T=    0.031860917823 / 
&RAMP ID='t', T=    0.031883540181 / 
&RAMP ID='t', T=    0.031906162540 / 
&RAMP ID='t', T=    0.031928784898 / 
&RAMP ID='t', T=    0.031951407257 / 
&RAMP ID='t', T=    0.031974029615 / 
&RAMP ID='t', T=    0.031996651974 / 
&RAMP ID='t', T=    0.032019274332 / 
&RAMP ID='t', T=    0.032041896691 / 
&RAMP ID='t', T=    0.032064519049 / 
&RAMP ID='t', T=    0.032087141408 / 
&RAMP ID='t', T=    0.032109763766 / 
&RAMP ID='t', T=    0.032132386125 / 
&RAMP ID='t', T=    0.032148352774 / 
&RAMP ID='t', T=    0.032159568327 / 
&RAMP ID='t', T=    0.032167696241 / 
&RAMP ID='t', T=    0.032175824156 / 
&RAMP ID='t', T=    0.032183952070 / 
&RAMP ID='t', T=    0.032192079985 / 
&RAMP ID='t', T=    0.032200207899 / 
&RAMP ID='t', T=    0.032208335813 / 
&RAMP ID='t', T=    0.032214303651 / 
&RAMP ID='t', T=    0.032218691536 / 
&RAMP ID='t', T=    0.032223079422 / 
&RAMP ID='t', T=    0.032227467307 / 
&RAMP ID='t', T=    0.032231855193 / 
&RAMP ID='t', T=    0.032236243078 / 
&RAMP ID='t', T=    0.032240630964 / 
&RAMP ID='t', T=    0.032245018850 / 
&RAMP ID='t', T=    0.032249406735 / 
&RAMP ID='t', T=    0.032253794621 / 
&RAMP ID='t', T=    0.032258182506 / 
&RAMP ID='t', T=    0.032262570392 / 
&RAMP ID='t', T=    0.032270188740 / 
&RAMP ID='t', T=    0.032277807088 / 
&RAMP ID='t', T=    0.032285425436 / 
&RAMP ID='t', T=    0.032293043784 / 
&RAMP ID='t', T=    0.032300662133 / 
&RAMP ID='t', T=    0.032312918586 / 
&RAMP ID='t', T=    0.032325175039 / 
&RAMP ID='t', T=    0.032337431493 / 
&RAMP ID='t', T=    0.032349687946 / 
&RAMP ID='t', T=    0.032361944400 / 
&RAMP ID='t', T=    0.032374200853 / 
&RAMP ID='t', T=    0.032386457307 / 
&RAMP ID='t', T=    0.032398713760 / 
&RAMP ID='t', T=    0.032410970213 / 
&RAMP ID='t', T=    0.032423226667 / 
&RAMP ID='t', T=    0.032435483120 / 
&RAMP ID='t', T=    0.032447739574 / 
&RAMP ID='t', T=    0.032459996027 / 
&RAMP ID='t', T=    0.032472252481 / 
&RAMP ID='t', T=    0.032484508934 / 
&RAMP ID='t', T=    0.032496765388 / 
&RAMP ID='t', T=    0.032509021841 / 
&RAMP ID='t', T=    0.032521278294 / 
&RAMP ID='t', T=    0.032533534748 / 
&RAMP ID='t', T=    0.032545791201 / 
&RAMP ID='t', T=    0.032558047655 / 
&RAMP ID='t', T=    0.032570304108 / 
&RAMP ID='t', T=    0.032582560562 / 
&RAMP ID='t', T=    0.032594817015 / 
&RAMP ID='t', T=    0.032607073468 / 
&RAMP ID='t', T=    0.032616038464 / 
&RAMP ID='t', T=    0.032622557589 / 
&RAMP ID='t', T=    0.032629076714 / 
&RAMP ID='t', T=    0.032635595840 / 
&RAMP ID='t', T=    0.032642114965 / 
&RAMP ID='t', T=    0.032648634090 / 
&RAMP ID='t', T=    0.032655153215 / 
&RAMP ID='t', T=    0.032659865919 / 
&RAMP ID='t', T=    0.032663255353 / 
&RAMP ID='t', T=    0.032666644787 / 
&RAMP ID='t', T=    0.032670034221 / 
&RAMP ID='t', T=    0.032673423654 / 
&RAMP ID='t', T=    0.032676813088 / 
&RAMP ID='t', T=    0.032680202522 / 
&RAMP ID='t', T=    0.032683591956 / 
&RAMP ID='t', T=    0.032686981390 / 
&RAMP ID='t', T=    0.032689480498 / 
&RAMP ID='t', T=    0.032691333903 / 
&RAMP ID='t', T=    0.032693187308 / 
&RAMP ID='t', T=    0.032695040713 / 
&RAMP ID='t', T=    0.032696894118 / 
&RAMP ID='t', T=    0.032698747523 / 
&RAMP ID='t', T=    0.032700600928 / 
&RAMP ID='t', T=    0.032702454333 / 
&RAMP ID='t', T=    0.032704307738 / 
&RAMP ID='t', T=    0.032706161143 / 
&RAMP ID='t', T=    0.032708014548 / 
&RAMP ID='t', T=    0.032709867952 / 
&RAMP ID='t', T=    0.032712854035 / 
&RAMP ID='t', T=    0.032715840118 / 
&RAMP ID='t', T=    0.032718826201 / 
&RAMP ID='t', T=    0.032721812284 / 
&RAMP ID='t', T=    0.032727674107 / 
&RAMP ID='t', T=    0.032733535930 / 
&RAMP ID='t', T=    0.032739397753 / 
&RAMP ID='t', T=    0.032745259576 / 
&RAMP ID='t', T=    0.032751121399 / 
&RAMP ID='t', T=    0.032756983222 / 
&RAMP ID='t', T=    0.032762845045 / 
&RAMP ID='t', T=    0.032771875784 / 
&RAMP ID='t', T=    0.032780906523 / 
&RAMP ID='t', T=    0.032789937262 / 
&RAMP ID='t', T=    0.032798968001 / 
&RAMP ID='t', T=    0.032807998740 / 
&RAMP ID='t', T=    0.032817029479 / 
&RAMP ID='t', T=    0.032826060217 / 
&RAMP ID='t', T=    0.032835090956 / 
&RAMP ID='t', T=    0.032844121695 / 
&RAMP ID='t', T=    0.032853152434 / 
&RAMP ID='t', T=    0.032862183173 / 
&RAMP ID='t', T=    0.032871213912 / 
&RAMP ID='t', T=    0.032880244651 / 
&RAMP ID='t', T=    0.032889275390 / 
&RAMP ID='t', T=    0.032898306129 / 
&RAMP ID='t', T=    0.032904825945 / 
&RAMP ID='t', T=    0.032909503389 / 
&RAMP ID='t', T=    0.032914180834 / 
&RAMP ID='t', T=    0.032918858279 / 
&RAMP ID='t', T=    0.032923535723 / 
&RAMP ID='t', T=    0.032928213168 / 
&RAMP ID='t', T=    0.032932890612 / 
&RAMP ID='t', T=    0.032936320327 / 
&RAMP ID='t', T=    0.032938826898 / 
&RAMP ID='t', T=    0.032941333469 / 
&RAMP ID='t', T=    0.032943840041 / 
&RAMP ID='t', T=    0.032946346612 / 
&RAMP ID='t', T=    0.032948853183 / 
&RAMP ID='t', T=    0.032951359755 / 
&RAMP ID='t', T=    0.032953866326 / 
&RAMP ID='t', T=    0.032956372897 / 
&RAMP ID='t', T=    0.032958879468 / 
&RAMP ID='t', T=    0.032961386040 / 
&RAMP ID='t', T=    0.032963892611 / 
&RAMP ID='t', T=    0.032966399182 / 
&RAMP ID='t', T=    0.032968905753 / 
&RAMP ID='t', T=    0.032971412325 / 
&RAMP ID='t', T=    0.032973171454 / 
&RAMP ID='t', T=    0.032974415739 / 
&RAMP ID='t', T=    0.032975660024 / 
&RAMP ID='t', T=    0.032976904308 / 
&RAMP ID='t', T=    0.032978148593 / 
&RAMP ID='t', T=    0.032979392877 / 
&RAMP ID='t', T=    0.032980637162 / 
&RAMP ID='t', T=    0.032981881447 / 
&RAMP ID='t', T=    0.032983125731 / 
&RAMP ID='t', T=    0.032984370016 / 
&RAMP ID='t', T=    0.032985614300 / 
&RAMP ID='t', T=    0.032986858585 / 
&RAMP ID='t', T=    0.032988102870 / 
&RAMP ID='t', T=    0.032989347154 / 
&RAMP ID='t', T=    0.032991239253 / 
&RAMP ID='t', T=    0.032993131351 / 
&RAMP ID='t', T=    0.032995023450 / 
&RAMP ID='t', T=    0.032996915548 / 
&RAMP ID='t', T=    0.033000476369 / 
&RAMP ID='t', T=    0.033004037191 / 
&RAMP ID='t', T=    0.033007598012 / 
&RAMP ID='t', T=    0.033011158834 / 
&RAMP ID='t', T=    0.033014719655 / 
&RAMP ID='t', T=    0.033018280476 / 
&RAMP ID='t', T=    0.033021841298 / 
&RAMP ID='t', T=    0.033027435285 / 
&RAMP ID='t', T=    0.033033029272 / 
&RAMP ID='t', T=    0.033038623259 / 
&RAMP ID='t', T=    0.033044217246 / 
&RAMP ID='t', T=    0.033049811233 / 
&RAMP ID='t', T=    0.033055405220 / 
&RAMP ID='t', T=    0.033060999207 / 
&RAMP ID='t', T=    0.033066593194 / 
&RAMP ID='t', T=    0.033072187181 / 
&RAMP ID='t', T=    0.033077781168 / 
&RAMP ID='t', T=    0.033083375155 / 
&RAMP ID='t', T=    0.033088969142 / 
&RAMP ID='t', T=    0.033094563129 / 
&RAMP ID='t', T=    0.033100157116 / 
&RAMP ID='t', T=    0.033105751103 / 
&RAMP ID='t', T=    0.033109720633 / 
&RAMP ID='t', T=    0.033112516854 / 
&RAMP ID='t', T=    0.033114583253 / 
&RAMP ID='t', T=    0.033116649651 / 
&RAMP ID='t', T=    0.033118716049 / 
&RAMP ID='t', T=    0.033120782448 / 
&RAMP ID='t', T=    0.033122848846 / 
&RAMP ID='t', T=    0.033124915244 / 
&RAMP ID='t', T=    0.033126981643 / 
&RAMP ID='t', T=    0.033129048041 / 
&RAMP ID='t', T=    0.033130517326 / 
&RAMP ID='t', T=    0.033131568293 / 
&RAMP ID='t', T=    0.033132619261 / 
&RAMP ID='t', T=    0.033133670228 / 
&RAMP ID='t', T=    0.033134721196 / 
&RAMP ID='t', T=    0.033135772163 / 
&RAMP ID='t', T=    0.033136823131 / 
&RAMP ID='t', T=    0.033137874099 / 
&RAMP ID='t', T=    0.033139545450 / 
&RAMP ID='t', T=    0.033141216802 / 
&RAMP ID='t', T=    0.033142888153 / 
&RAMP ID='t', T=    0.033144559505 / 
&RAMP ID='t', T=    0.033146230857 / 
&RAMP ID='t', T=    0.033148974370 / 
&RAMP ID='t', T=    0.033151717884 / 
&RAMP ID='t', T=    0.033154461398 / 
&RAMP ID='t', T=    0.033157204911 / 
&RAMP ID='t', T=    0.033159948425 / 
&RAMP ID='t', T=    0.033162691939 / 
&RAMP ID='t', T=    0.033167136305 / 
&RAMP ID='t', T=    0.033170332035 / 
&RAMP ID='t', T=    0.033173527765 / 
&RAMP ID='t', T=    0.033176723494 / 
&RAMP ID='t', T=    0.033179919224 / 
&RAMP ID='t', T=    0.033183114954 / 
&RAMP ID='t', T=    0.033186310684 / 
&RAMP ID='t', T=    0.033189506414 / 
&RAMP ID='t', T=    0.033192702144 / 
&RAMP ID='t', T=    0.033195897873 / 
&RAMP ID='t', T=    0.033199093603 / 
&RAMP ID='t', T=    0.033202289333 / 
&RAMP ID='t', T=    0.033205485063 / 
&RAMP ID='t', T=    0.033208680793 / 
&RAMP ID='t', T=    0.033211876523 / 
&RAMP ID='t', T=    0.033215072252 / 
&RAMP ID='t', T=    0.033218267982 / 
&RAMP ID='t', T=    0.033221463712 / 
&RAMP ID='t', T=    0.033224659442 / 
&RAMP ID='t', T=    0.033227855172 / 
&RAMP ID='t', T=    0.033230084165 / 
&RAMP ID='t', T=    0.033231638675 / 
&RAMP ID='t', T=    0.033233193185 / 
&RAMP ID='t', T=    0.033234747694 / 
&RAMP ID='t', T=    0.033236302204 / 
&RAMP ID='t', T=    0.033237856714 / 
&RAMP ID='t', T=    0.033239411224 / 
&RAMP ID='t', T=    0.033240965734 / 
&RAMP ID='t', T=    0.033242083330 / 
&RAMP ID='t', T=    0.033243200926 / 
&RAMP ID='t', T=    0.033244318523 / 
&RAMP ID='t', T=    0.033245436119 / 
&RAMP ID='t', T=    0.033246553715 / 
&RAMP ID='t', T=    0.033247671312 / 
&RAMP ID='t', T=    0.033248788908 / 
&RAMP ID='t', T=    0.033249906504 / 
&RAMP ID='t', T=    0.033251024101 / 
&RAMP ID='t', T=    0.033252141697 / 
&RAMP ID='t', T=    0.033253259293 / 
&RAMP ID='t', T=    0.033254376890 / 
&RAMP ID='t', T=    0.033255494486 / 
&RAMP ID='t', T=    0.033256612082 / 
&RAMP ID='t', T=    0.033257729678 / 
&RAMP ID='t', T=    0.033258847275 / 
&RAMP ID='t', T=    0.033259964871 / 
&RAMP ID='t', T=    0.033261082467 / 
&RAMP ID='t', T=    0.033262200064 / 
&RAMP ID='t', T=    0.033263317660 / 
&RAMP ID='t', T=    0.033264145477 / 
&RAMP ID='t', T=    0.033264973295 / 
&RAMP ID='t', T=    0.033265801112 / 
&RAMP ID='t', T=    0.033266628929 / 
&RAMP ID='t', T=    0.033267456747 / 
&RAMP ID='t', T=    0.033268284564 / 
&RAMP ID='t', T=    0.033269112382 / 
&RAMP ID='t', T=    0.033269940199 / 
&RAMP ID='t', T=    0.033270768016 / 
&RAMP ID='t', T=    0.033271595834 / 
&RAMP ID='t', T=    0.033272423651 / 
&RAMP ID='t', T=    0.033273251468 / 
&RAMP ID='t', T=    0.033274079286 / 
&RAMP ID='t', T=    0.033275333412 / 
&RAMP ID='t', T=    0.033276587539 / 
&RAMP ID='t', T=    0.033277841665 / 
&RAMP ID='t', T=    0.033279095791 / 
&RAMP ID='t', T=    0.033280349918 / 
&RAMP ID='t', T=    0.033282729024 / 
&RAMP ID='t', T=    0.033285108130 / 
&RAMP ID='t', T=    0.033287487236 / 
&RAMP ID='t', T=    0.033289866342 / 
&RAMP ID='t', T=    0.033292245448 / 
&RAMP ID='t', T=    0.033294624554 / 
&RAMP ID='t', T=    0.033297003661 / 
&RAMP ID='t', T=    0.033299382767 / 
&RAMP ID='t', T=    0.033301761873 / 