&HEAD CHID='ignition_delay_T900K_Phi0.6', TITLE='ignition_delay_T900K_Phi0.6' /

&MISC GVEC(3)=0.0, NOISE=F, STRATIFICATION=F, SIMULATION_MODE='DNS' /

&RADI RADIATION=F/
&SURF ID='DEF',DEFAULT=T,ADIABATIC=T/

&COMB FINITE_RATE_MIN_TEMP=300,ZZ_MIN_GLOBAL=1E-15,INITIAL_UNMIXED_FRACTION=0.0,ODE_SOLVER='CVODE',ODE_MIN_ATOL=1E-15,ODE_REL_ERROR=1E-9/
&TIME T_END=10.0, DT=0.00001, LOCK_TIME_STEP=T /
&DUMP DT_DEVC=0.0001/

&CATF OTHER_FILES='../../Utilities/Input_Libraries/Chemical_Mechanisms/FDS/grimech30.fds' /

&MESH IJK=4,1,4, XB=0.0,0.1,0.0,0.025,0.0,0.1 /
&INIT XB=0.0,0.1,0.0,0.025,0.0,0.1, MASS_FRACTION(1)=0.22511048, SPEC_ID(1)='O2',MASS_FRACTION(2)=0.03385944,SPEC_ID(2)='CH4',  TEMPERATURE=626.85 /
&DEVC XB=0.0,0.1,0.0,0.025,0.0,0.1, QUANTITY='MASS FRACTION', SPEC_ID='OH',  ID='OH' /
&DEVC XB=0.0,0.1,0.0,0.025,0.0,0.1, QUANTITY='TEMPERATURE', ID='TMP'/

&TAIL /
