&HEAD CHID='ignition_delay', TITLE='ignition_delay' /

&MISC GVEC(3)=0.0, NOISE=F, STRATIFICATION=F, SIMULATION_MODE='DNS' /

&RADI RADIATION=F/
&SURF ID='DEF',DEFAULT=T,ADIABATIC=T/

&COMB FINITE_RATE_MIN_TEMP=300,ZZ_MIN_GLOBAL=1E-15,INITIAL_UNMIXED_FRACTION=0.0,ODE_SOLVER='CVODE',ODE_MIN_ATOL=1E-15,ODE_REL_ERROR=1E-9/
&TIME T_END=10.0, DT=0.00001, LOCK_TIME_STEP=T /
&DUMP DT_DEVC=0.00001/

&CATF OTHER_FILES='../../Utilities/Input_Libraries/Chemical_Mechanisms/FDS/grimech30.fds' /

Equivalence ratio = 0.6
--------------------------

&MESH IJK=4,4,4, XB=0.0,0.1,0.0,0.1,0.0,0.1 /
&INIT XB=0.0,0.1,0.0,0.1,0.0,0.1, MASS_FRACTION(1)=0.22511048, SPEC_ID(1)='O2',MASS_FRACTION(2)=0.03385944,SPEC_ID(2)='CH4',  TEMPERATURE=626.85 /
&DEVC XB=0.0,0.1,0.0,0.1,0.0,0.1, QUANTITY='MASS FRACTION', SPEC_ID='OH',  ID='OH1' /
&DEVC XB=0.0,0.1,0.0,0.1,0.0,0.1, QUANTITY='TEMPERATURE', ID='TMP1'/

&MESH IJK=4,4,4, XB=0.2,0.3,0.0,0.1,0.0,0.1 /
&INIT XB=0.2,0.3,0.0,0.1,0.0,0.1, MASS_FRACTION(1)=0.22511048, SPEC_ID(1)='O2',MASS_FRACTION(2)=0.03385944,SPEC_ID(2)='CH4',  TEMPERATURE=726.85 /
&DEVC XB=0.2,0.3,0.0,0.1,0.0,0.1, QUANTITY='MASS FRACTION', SPEC_ID='OH',  ID='OH2' /
&DEVC XB=0.2,0.3,0.0,0.1,0.0,0.1, QUANTITY='TEMPERATURE', ID='TMP2'/

&MESH IJK=4,4,4, XB=0.4,0.5,0.0,0.1,0.0,0.1 /
&INIT XB=0.4,0.5,0.0,0.1,0.0,0.1, MASS_FRACTION(1)=0.22511048, SPEC_ID(1)='O2',MASS_FRACTION(2)=0.03385944,SPEC_ID(2)='CH4',  TEMPERATURE=826.85 /
&DEVC XB=0.4,0.5,0.0,0.1,0.0,0.1, QUANTITY='MASS FRACTION', SPEC_ID='OH',  ID='OH3' /
&DEVC XB=0.4,0.5,0.0,0.1,0.0,0.1, QUANTITY='TEMPERATURE', ID='TMP3'/

&MESH IJK=4,4,4, XB=0.6,0.7,0.0,0.1,0.0,0.1 /
&INIT XB=0.6,0.7,0.0,0.1,0.0,0.1, MASS_FRACTION(1)=0.22511048, SPEC_ID(1)='O2',MASS_FRACTION(2)=0.03385944,SPEC_ID(2)='CH4',  TEMPERATURE=926.85 /
&DEVC XB=0.6,0.7,0.0,0.1,0.0,0.1, QUANTITY='MASS FRACTION', SPEC_ID='OH',  ID='OH4' /
&DEVC XB=0.6,0.7,0.0,0.1,0.0,0.1, QUANTITY='TEMPERATURE', ID='TMP4'/

Equivalence ratio = 0.6
--------------------------

&MESH IJK=4,4,4, XB=0.8,0.9,0.0,0.1,0.0,0.1 /
&INIT XB=0.8,0.9,0.0,0.1,0.0,0.1, MASS_FRACTION(1)=0.22014124, SPEC_ID(1)='O2',MASS_FRACTION(2)=0.05518667,SPEC_ID(2)='CH4',  TEMPERATURE=626.85 /
&DEVC XB=0.8,0.9,0.0,0.1,0.0,0.1, QUANTITY='MASS FRACTION', SPEC_ID='OH',  ID='OH5' /
&DEVC XB=0.8,0.9,0.0,0.1,0.0,0.1, QUANTITY='TEMPERATURE', ID='TMP5'/

&MESH IJK=4,4,4, XB=1.0,1.1,0.0,0.1,0.0,0.1 /
&INIT XB=1.0,1.1,0.0,0.1,0.0,0.1, MASS_FRACTION(1)=0.22014124, SPEC_ID(1)='O2',MASS_FRACTION(2)=0.05518667,SPEC_ID(2)='CH4',  TEMPERATURE=726.85 /
&DEVC XB=1.0,1.1,0.0,0.1,0.0,0.1, QUANTITY='MASS FRACTION', SPEC_ID='OH',  ID='OH6' /
&DEVC XB=1.0,1.1,0.0,0.1,0.0,0.1, QUANTITY='TEMPERATURE', ID='TMP6'/

&MESH IJK=4,4,4, XB=1.2,1.3,0.0,0.1,0.0,0.1 /
&INIT XB=1.2,1.3,0.0,0.1,0.0,0.1, MASS_FRACTION(1)=0.22014124, SPEC_ID(1)='O2',MASS_FRACTION(2)=0.05518667,SPEC_ID(2)='CH4',  TEMPERATURE=826.85 /
&DEVC XB=1.2,1.3,0.0,0.1,0.0,0.1, QUANTITY='MASS FRACTION', SPEC_ID='OH',  ID='OH7' /
&DEVC XB=1.2,1.3,0.0,0.1,0.0,0.1, QUANTITY='TEMPERATURE', ID='TMP7'/

&MESH IJK=4,4,4, XB=1.4,1.5,0.0,0.1,0.0,0.1 /
&INIT XB=1.4,1.5,0.0,0.1,0.0,0.1, MASS_FRACTION(1)=0.22014124, SPEC_ID(1)='O2',MASS_FRACTION(2)=0.05518667,SPEC_ID(2)='CH4',  TEMPERATURE=926.85 /
&DEVC XB=1.4,1.5,0.0,0.1,0.0,0.1, QUANTITY='MASS FRACTION', SPEC_ID='OH',  ID='OH8' /
&DEVC XB=1.4,1.5,0.0,0.1,0.0,0.1, QUANTITY='TEMPERATURE', ID='TMP8'/

Equivalence ratio = 1.4
--------------------------

&MESH IJK=4,4,4, XB=1.6,1.7,0.0,0.1,0.0,0.1 /
&INIT XB=1.6,1.7,0.0,0.1,0.0,0.1, MASS_FRACTION(1)=0.21538665, SPEC_ID(1)='O2',MASS_FRACTION(2)=0.07559265,SPEC_ID(2)='CH4',  TEMPERATURE=626.85 /
&DEVC XB=1.6,1.7,0.0,0.1,0.0,0.1, QUANTITY='MASS FRACTION', SPEC_ID='OH',  ID='OH9' /
&DEVC XB=1.6,1.7,0.0,0.1,0.0,0.1, QUANTITY='TEMPERATURE', ID='TMP9'/

&MESH IJK=4,4,4, XB=1.8,1.9,0.0,0.1,0.0,0.1 /
&INIT XB=1.8,1.9,0.0,0.1,0.0,0.1, MASS_FRACTION(1)=0.21538665, SPEC_ID(1)='O2',MASS_FRACTION(2)=0.07559265,SPEC_ID(2)='CH4',  TEMPERATURE=726.85 /
&DEVC XB=1.8,1.9,0.0,0.1,0.0,0.1, QUANTITY='MASS FRACTION', SPEC_ID='OH',  ID='OH10' /
&DEVC XB=1.8,1.9,0.0,0.1,0.0,0.1, QUANTITY='TEMPERATURE', ID='TMP10'/

&MESH IJK=4,4,4, XB=0.0,0.1,0.0,0.1,0.2,0.3 /
&INIT XB=0.0,0.1,0.0,0.1,0.2,0.3, MASS_FRACTION(1)=0.21538665, SPEC_ID(1)='O2',MASS_FRACTION(2)=0.07559265,SPEC_ID(2)='CH4',  TEMPERATURE=826.85 /
&DEVC XB=0.0,0.1,0.0,0.1,0.2,0.3, QUANTITY='MASS FRACTION', SPEC_ID='OH',  ID='OH11' /
&DEVC XB=0.0,0.1,0.0,0.1,0.2,0.3, QUANTITY='TEMPERATURE', ID='TMP11'/

&MESH IJK=4,4,4, XB=0.2,0.3,0.0,0.1,0.2,0.3 /
&INIT XB=0.2,0.3,0.0,0.1,0.2,0.3, MASS_FRACTION(1)=0.21538665, SPEC_ID(1)='O2',MASS_FRACTION(2)=0.07559265,SPEC_ID(2)='CH4',  TEMPERATURE=926.85 /
&DEVC XB=0.2,0.3,0.0,0.1,0.2,0.3, QUANTITY='MASS FRACTION', SPEC_ID='OH',  ID='OH12' /
&DEVC XB=0.2,0.3,0.0,0.1,0.2,0.3, QUANTITY='TEMPERATURE', ID='TMP12'/

&TAIL /
