&HEAD CHID='ignition_delay_T1000K_Phi1p0', TITLE='ignition_delay T=1000K Phi=1.0' /

&MISC GVEC(3)=0.0, NOISE=F, STRATIFICATION=F, SIMULATION_MODE='DNS' /

&RADI RADIATION=F/
&SURF ID='DEF',DEFAULT=T,ADIABATIC=T/

&COMB FINITE_RATE_MIN_TEMP=300,ZZ_MIN_GLOBAL=1E-15,INITIAL_UNMIXED_FRACTION=0.0,ODE_SOLVER='CVODE',ODE_MIN_ATOL=1E-15,ODE_REL_ERROR=1E-9/
&TIME T_END=10, RAMP_TIME='t' /
&DUMP DT_DEVC=1e-20/

&CATF OTHER_FILES='../../Utilities/Input_Libraries/Chemical_Mechanisms/FDS/grimech30.fds' /

&MESH IJK=5,1,5, XB=0.0,1.0,0.0,0.2,0.0,1.0 /
&OBST XB=0.0,1.0,0.0,0.2,0.0,1.0/
&HOLE XB=0.4,0.6,-1.0,1.0,0.4,0.6/
&INIT XB=0.4,0.6,-1.0,1.0,0.4,0.6, MASS_FRACTION(1)=0.22014124, SPEC_ID(1)='O2',MASS_FRACTION(2)=0.05518667,SPEC_ID(2)='CH4',  TEMPERATURE=726.85 /
&DEVC XYZ=0.5,0.0,0.5, QUANTITY='MASS FRACTION', SPEC_ID='OH',  ID='OH' /
&DEVC XYZ=0.5,0.0,0.5, QUANTITY='TEMPERATURE', ID='TMP'/

&RAMP ID='t', T=    0.000000000006 / 
&RAMP ID='t', T=    0.000000058830 / 
&RAMP ID='t', T=    0.000000647068 / 
&RAMP ID='t', T=    0.000001891571 / 
&RAMP ID='t', T=    0.000003785611 / 
&RAMP ID='t', T=    0.000005679651 / 
&RAMP ID='t', T=    0.000008546543 / 
&RAMP ID='t', T=    0.000013525825 / 
&RAMP ID='t', T=    0.000018505107 / 
&RAMP ID='t', T=    0.000023484389 / 
&RAMP ID='t', T=    0.000032295682 / 
&RAMP ID='t', T=    0.000041106975 / 
&RAMP ID='t', T=    0.000055609127 / 
&RAMP ID='t', T=    0.000070111279 / 
&RAMP ID='t', T=    0.000093007540 / 
&RAMP ID='t', T=    0.000115903802 / 
&RAMP ID='t', T=    0.000138800063 / 
&RAMP ID='t', T=    0.000185974618 / 
&RAMP ID='t', T=    0.000233149173 / 
&RAMP ID='t', T=    0.000280323728 / 
&RAMP ID='t', T=    0.000327498283 / 
&RAMP ID='t', T=    0.000374672837 / 
&RAMP ID='t', T=    0.000490499621 / 
&RAMP ID='t', T=    0.000606326404 / 
&RAMP ID='t', T=    0.000722153188 / 
&RAMP ID='t', T=    0.000837979971 / 
&RAMP ID='t', T=    0.000953806755 / 
&RAMP ID='t', T=    0.001135222651 / 
&RAMP ID='t', T=    0.001316638548 / 
&RAMP ID='t', T=    0.001498054444 / 
&RAMP ID='t', T=    0.001679470340 / 
&RAMP ID='t', T=    0.001860886237 / 
&RAMP ID='t', T=    0.002042302133 / 
&RAMP ID='t', T=    0.002223718030 / 
&RAMP ID='t', T=    0.002496814640 / 
&RAMP ID='t', T=    0.002769911250 / 
&RAMP ID='t', T=    0.003043007860 / 
&RAMP ID='t', T=    0.003316104471 / 
&RAMP ID='t', T=    0.003744068937 / 
&RAMP ID='t', T=    0.004172033403 / 
&RAMP ID='t', T=    0.004484751163 / 
&RAMP ID='t', T=    0.004797468924 / 
&RAMP ID='t', T=    0.005110186684 / 
&RAMP ID='t', T=    0.005422904445 / 
&RAMP ID='t', T=    0.005735622205 / 
&RAMP ID='t', T=    0.006048339965 / 
&RAMP ID='t', T=    0.006361057726 / 
&RAMP ID='t', T=    0.006673775486 / 
&RAMP ID='t', T=    0.006986493247 / 
&RAMP ID='t', T=    0.007299211007 / 
&RAMP ID='t', T=    0.007611928768 / 
&RAMP ID='t', T=    0.007924646528 / 
&RAMP ID='t', T=    0.008237364288 / 
&RAMP ID='t', T=    0.008550082049 / 
&RAMP ID='t', T=    0.008862799809 / 
&RAMP ID='t', T=    0.009175517570 / 
&RAMP ID='t', T=    0.009488235330 / 
&RAMP ID='t', T=    0.009800953090 / 
&RAMP ID='t', T=    0.010113670851 / 
&RAMP ID='t', T=    0.010426388611 / 
&RAMP ID='t', T=    0.010739106372 / 
&RAMP ID='t', T=    0.011051824132 / 
&RAMP ID='t', T=    0.011364541893 / 
&RAMP ID='t', T=    0.011677259653 / 
&RAMP ID='t', T=    0.011989977413 / 
&RAMP ID='t', T=    0.012302695174 / 
&RAMP ID='t', T=    0.012615412934 / 
&RAMP ID='t', T=    0.012928130695 / 
&RAMP ID='t', T=    0.013240848455 / 
&RAMP ID='t', T=    0.013553566215 / 
&RAMP ID='t', T=    0.013866283976 / 
&RAMP ID='t', T=    0.014179001736 / 
&RAMP ID='t', T=    0.014491719497 / 
&RAMP ID='t', T=    0.014804437257 / 
&RAMP ID='t', T=    0.015117155018 / 
&RAMP ID='t', T=    0.015429872778 / 
&RAMP ID='t', T=    0.015742590538 / 
&RAMP ID='t', T=    0.016055308299 / 
&RAMP ID='t', T=    0.016368026059 / 
&RAMP ID='t', T=    0.016680743820 / 
&RAMP ID='t', T=    0.016993461580 / 
&RAMP ID='t', T=    0.017306179340 / 
&RAMP ID='t', T=    0.017618897101 / 
&RAMP ID='t', T=    0.017931614861 / 
&RAMP ID='t', T=    0.018244332622 / 
&RAMP ID='t', T=    0.018557050382 / 
&RAMP ID='t', T=    0.018869768143 / 
&RAMP ID='t', T=    0.019182485903 / 
&RAMP ID='t', T=    0.019495203663 / 
&RAMP ID='t', T=    0.019964407397 / 
&RAMP ID='t', T=    0.020433611132 / 
&RAMP ID='t', T=    0.020902814866 / 
&RAMP ID='t', T=    0.021372018600 / 
&RAMP ID='t', T=    0.021841222334 / 
&RAMP ID='t', T=    0.022310426068 / 
&RAMP ID='t', T=    0.022779629802 / 
&RAMP ID='t', T=    0.023248833536 / 
&RAMP ID='t', T=    0.023718037270 / 
&RAMP ID='t', T=    0.024187241004 / 
&RAMP ID='t', T=    0.024656444738 / 
&RAMP ID='t', T=    0.025125648472 / 
&RAMP ID='t', T=    0.025594852207 / 
&RAMP ID='t', T=    0.026064055941 / 
&RAMP ID='t', T=    0.026533259675 / 
&RAMP ID='t', T=    0.027002463409 / 
&RAMP ID='t', T=    0.027471667143 / 
&RAMP ID='t', T=    0.027940870877 / 
&RAMP ID='t', T=    0.028410074611 / 
&RAMP ID='t', T=    0.028879278345 / 
&RAMP ID='t', T=    0.029348482079 / 
&RAMP ID='t', T=    0.029817685813 / 
&RAMP ID='t', T=    0.030286889547 / 
&RAMP ID='t', T=    0.030756093282 / 
&RAMP ID='t', T=    0.031225297016 / 
&RAMP ID='t', T=    0.031694500750 / 
&RAMP ID='t', T=    0.032163704484 / 
&RAMP ID='t', T=    0.032632908218 / 
&RAMP ID='t', T=    0.033102111952 / 
&RAMP ID='t', T=    0.033571315686 / 
&RAMP ID='t', T=    0.034040519420 / 
&RAMP ID='t', T=    0.034509723154 / 
&RAMP ID='t', T=    0.034978926888 / 
&RAMP ID='t', T=    0.035448130622 / 
&RAMP ID='t', T=    0.036167425208 / 
&RAMP ID='t', T=    0.036886719793 / 
&RAMP ID='t', T=    0.037606014378 / 
&RAMP ID='t', T=    0.038325308963 / 
&RAMP ID='t', T=    0.039044603548 / 
&RAMP ID='t', T=    0.039763898133 / 
&RAMP ID='t', T=    0.040483192719 / 
&RAMP ID='t', T=    0.041202487304 / 
&RAMP ID='t', T=    0.041921781889 / 
&RAMP ID='t', T=    0.042641076474 / 
&RAMP ID='t', T=    0.043360371059 / 
&RAMP ID='t', T=    0.044079665645 / 
&RAMP ID='t', T=    0.044798960230 / 
&RAMP ID='t', T=    0.045518254815 / 
&RAMP ID='t', T=    0.046237549400 / 
&RAMP ID='t', T=    0.046956843985 / 
&RAMP ID='t', T=    0.047676138570 / 
&RAMP ID='t', T=    0.048395433156 / 
&RAMP ID='t', T=    0.049114727741 / 
&RAMP ID='t', T=    0.049834022326 / 
&RAMP ID='t', T=    0.050553316911 / 
&RAMP ID='t', T=    0.051272611496 / 
&RAMP ID='t', T=    0.051991906082 / 
&RAMP ID='t', T=    0.052711200667 / 
&RAMP ID='t', T=    0.053430495252 / 
&RAMP ID='t', T=    0.054149789837 / 
&RAMP ID='t', T=    0.054869084422 / 
&RAMP ID='t', T=    0.055588379007 / 
&RAMP ID='t', T=    0.056671972448 / 
&RAMP ID='t', T=    0.057755565889 / 
&RAMP ID='t', T=    0.058839159330 / 
&RAMP ID='t', T=    0.059922752770 / 
&RAMP ID='t', T=    0.061006346211 / 
&RAMP ID='t', T=    0.062089939652 / 
&RAMP ID='t', T=    0.063173533092 / 
&RAMP ID='t', T=    0.064257126533 / 
&RAMP ID='t', T=    0.065340719974 / 
&RAMP ID='t', T=    0.066424313414 / 
&RAMP ID='t', T=    0.067507906855 / 
&RAMP ID='t', T=    0.068591500296 / 
&RAMP ID='t', T=    0.069675093736 / 
&RAMP ID='t', T=    0.070758687177 / 
&RAMP ID='t', T=    0.071842280618 / 
&RAMP ID='t', T=    0.073516801866 / 
&RAMP ID='t', T=    0.075191323115 / 
&RAMP ID='t', T=    0.076865844363 / 
&RAMP ID='t', T=    0.078540365612 / 
&RAMP ID='t', T=    0.080214886860 / 
&RAMP ID='t', T=    0.081889408109 / 
&RAMP ID='t', T=    0.083563929357 / 
&RAMP ID='t', T=    0.085238450606 / 
&RAMP ID='t', T=    0.086912971854 / 
&RAMP ID='t', T=    0.088587493103 / 
&RAMP ID='t', T=    0.091301948893 / 
&RAMP ID='t', T=    0.094016404684 / 
&RAMP ID='t', T=    0.096730860474 / 
&RAMP ID='t', T=    0.099445316265 / 
&RAMP ID='t', T=    0.102159772055 / 
&RAMP ID='t', T=    0.104874227846 / 
&RAMP ID='t', T=    0.107588683636 / 
&RAMP ID='t', T=    0.110303139427 / 
&RAMP ID='t', T=    0.113017595217 / 
&RAMP ID='t', T=    0.115732051007 / 
&RAMP ID='t', T=    0.118446506798 / 
&RAMP ID='t', T=    0.122890121623 / 
&RAMP ID='t', T=    0.127333736448 / 
&RAMP ID='t', T=    0.131777351273 / 
&RAMP ID='t', T=    0.136220966097 / 
&RAMP ID='t', T=    0.140664580922 / 
&RAMP ID='t', T=    0.145108195747 / 
&RAMP ID='t', T=    0.152076278478 / 
&RAMP ID='t', T=    0.159044361210 / 
&RAMP ID='t', T=    0.166012443941 / 
&RAMP ID='t', T=    0.172980526672 / 
&RAMP ID='t', T=    0.179948609403 / 
&RAMP ID='t', T=    0.186916692134 / 
&RAMP ID='t', T=    0.193884774865 / 
&RAMP ID='t', T=    0.200852857597 / 
&RAMP ID='t', T=    0.207820940328 / 
&RAMP ID='t', T=    0.214789023059 / 
&RAMP ID='t', T=    0.221757105790 / 
&RAMP ID='t', T=    0.228725188521 / 
&RAMP ID='t', T=    0.235693271252 / 
&RAMP ID='t', T=    0.242661353983 / 
&RAMP ID='t', T=    0.249629436715 / 
&RAMP ID='t', T=    0.256597519446 / 
&RAMP ID='t', T=    0.263565602177 / 
&RAMP ID='t', T=    0.270533684908 / 
&RAMP ID='t', T=    0.277501767639 / 
&RAMP ID='t', T=    0.284469850370 / 
&RAMP ID='t', T=    0.291437933101 / 
&RAMP ID='t', T=    0.298406015833 / 
&RAMP ID='t', T=    0.305374098564 / 
&RAMP ID='t', T=    0.312342181295 / 
&RAMP ID='t', T=    0.319310264026 / 
&RAMP ID='t', T=    0.326278346757 / 
&RAMP ID='t', T=    0.333246429488 / 
&RAMP ID='t', T=    0.340214512220 / 
&RAMP ID='t', T=    0.347182594951 / 
&RAMP ID='t', T=    0.354150677682 / 
&RAMP ID='t', T=    0.359070430358 / 
&RAMP ID='t', T=    0.363990183035 / 
&RAMP ID='t', T=    0.368909935711 / 
&RAMP ID='t', T=    0.373829688387 / 
&RAMP ID='t', T=    0.378749441064 / 
&RAMP ID='t', T=    0.383669193740 / 
&RAMP ID='t', T=    0.388588946416 / 
&RAMP ID='t', T=    0.393508699093 / 
&RAMP ID='t', T=    0.398428451769 / 
&RAMP ID='t', T=    0.401906236869 / 
&RAMP ID='t', T=    0.405384021970 / 
&RAMP ID='t', T=    0.408861807070 / 
&RAMP ID='t', T=    0.412339592171 / 
&RAMP ID='t', T=    0.415817377271 / 
&RAMP ID='t', T=    0.419295162371 / 
&RAMP ID='t', T=    0.422772947472 / 
&RAMP ID='t', T=    0.426250732572 / 
&RAMP ID='t', T=    0.429728517673 / 
&RAMP ID='t', T=    0.433206302773 / 
&RAMP ID='t', T=    0.436684087873 / 
&RAMP ID='t', T=    0.440161872974 / 
&RAMP ID='t', T=    0.443639658074 / 
&RAMP ID='t', T=    0.447117443175 / 
&RAMP ID='t', T=    0.450595228275 / 
&RAMP ID='t', T=    0.454073013375 / 
&RAMP ID='t', T=    0.457550798476 / 
&RAMP ID='t', T=    0.463167604951 / 
&RAMP ID='t', T=    0.468784411427 / 
&RAMP ID='t', T=    0.474401217902 / 
&RAMP ID='t', T=    0.480018024378 / 
&RAMP ID='t', T=    0.485634830854 / 
&RAMP ID='t', T=    0.491251637329 / 
&RAMP ID='t', T=    0.496868443805 / 
&RAMP ID='t', T=    0.502485250280 / 
&RAMP ID='t', T=    0.508102056756 / 
&RAMP ID='t', T=    0.513718863231 / 
&RAMP ID='t', T=    0.519335669707 / 
&RAMP ID='t', T=    0.524952476182 / 
&RAMP ID='t', T=    0.530569282658 / 
&RAMP ID='t', T=    0.536186089134 / 
&RAMP ID='t', T=    0.541802895609 / 
&RAMP ID='t', T=    0.547419702085 / 
&RAMP ID='t', T=    0.553036508560 / 
&RAMP ID='t', T=    0.558653315036 / 
&RAMP ID='t', T=    0.564270121511 / 
&RAMP ID='t', T=    0.569886927987 / 
&RAMP ID='t', T=    0.575503734463 / 
&RAMP ID='t', T=    0.581120540938 / 
&RAMP ID='t', T=    0.586737347414 / 
&RAMP ID='t', T=    0.592354153889 / 
&RAMP ID='t', T=    0.597970960365 / 
&RAMP ID='t', T=    0.603587766840 / 
&RAMP ID='t', T=    0.609204573316 / 
&RAMP ID='t', T=    0.613226479840 / 
&RAMP ID='t', T=    0.617248386363 / 
&RAMP ID='t', T=    0.621270292887 / 
&RAMP ID='t', T=    0.625292199410 / 
&RAMP ID='t', T=    0.629314105934 / 
&RAMP ID='t', T=    0.633336012457 / 
&RAMP ID='t', T=    0.637357918981 / 
&RAMP ID='t', T=    0.641379825504 / 
&RAMP ID='t', T=    0.645401732028 / 
&RAMP ID='t', T=    0.649423638551 / 
&RAMP ID='t', T=    0.653445545075 / 
&RAMP ID='t', T=    0.657467451598 / 
&RAMP ID='t', T=    0.661489358122 / 
&RAMP ID='t', T=    0.665511264645 / 
&RAMP ID='t', T=    0.669533171169 / 
&RAMP ID='t', T=    0.673555077692 / 
&RAMP ID='t', T=    0.676467840620 / 
&RAMP ID='t', T=    0.679380603547 / 
&RAMP ID='t', T=    0.682293366474 / 
&RAMP ID='t', T=    0.685206129402 / 
&RAMP ID='t', T=    0.688118892329 / 
&RAMP ID='t', T=    0.691031655257 / 
&RAMP ID='t', T=    0.693944418184 / 
&RAMP ID='t', T=    0.696857181111 / 
&RAMP ID='t', T=    0.699769944039 / 
&RAMP ID='t', T=    0.702682706966 / 
&RAMP ID='t', T=    0.705595469893 / 
&RAMP ID='t', T=    0.708508232821 / 
&RAMP ID='t', T=    0.711420995748 / 
&RAMP ID='t', T=    0.714333758675 / 
&RAMP ID='t', T=    0.717246521603 / 
&RAMP ID='t', T=    0.720159284530 / 
&RAMP ID='t', T=    0.723072047457 / 
&RAMP ID='t', T=    0.725984810385 / 
&RAMP ID='t', T=    0.728897573312 / 
&RAMP ID='t', T=    0.731810336239 / 
&RAMP ID='t', T=    0.734723099167 / 
&RAMP ID='t', T=    0.739152945968 / 
&RAMP ID='t', T=    0.743582792768 / 
&RAMP ID='t', T=    0.748012639569 / 
&RAMP ID='t', T=    0.752442486370 / 
&RAMP ID='t', T=    0.756872333170 / 
&RAMP ID='t', T=    0.761302179971 / 
&RAMP ID='t', T=    0.765732026772 / 
&RAMP ID='t', T=    0.770161873573 / 
&RAMP ID='t', T=    0.774591720373 / 
&RAMP ID='t', T=    0.779021567174 / 
&RAMP ID='t', T=    0.783451413975 / 
&RAMP ID='t', T=    0.787881260776 / 
&RAMP ID='t', T=    0.792311107576 / 
&RAMP ID='t', T=    0.796740954377 / 
&RAMP ID='t', T=    0.801170801178 / 
&RAMP ID='t', T=    0.805600647979 / 
&RAMP ID='t', T=    0.810030494779 / 
&RAMP ID='t', T=    0.814460341580 / 
&RAMP ID='t', T=    0.818890188381 / 
&RAMP ID='t', T=    0.823320035182 / 
&RAMP ID='t', T=    0.827749881982 / 
&RAMP ID='t', T=    0.830956728998 / 
&RAMP ID='t', T=    0.834163576013 / 
&RAMP ID='t', T=    0.837370423029 / 
&RAMP ID='t', T=    0.840577270044 / 
&RAMP ID='t', T=    0.843784117060 / 
&RAMP ID='t', T=    0.846160608655 / 
&RAMP ID='t', T=    0.848537100250 / 
&RAMP ID='t', T=    0.850913591846 / 
&RAMP ID='t', T=    0.853290083441 / 
&RAMP ID='t', T=    0.855666575037 / 
&RAMP ID='t', T=    0.858043066632 / 
&RAMP ID='t', T=    0.860419558228 / 
&RAMP ID='t', T=    0.862796049823 / 
&RAMP ID='t', T=    0.865172541419 / 
&RAMP ID='t', T=    0.867549033014 / 
&RAMP ID='t', T=    0.869925524610 / 
&RAMP ID='t', T=    0.872302016205 / 
&RAMP ID='t', T=    0.874678507801 / 
&RAMP ID='t', T=    0.877054999396 / 
&RAMP ID='t', T=    0.879431490992 / 
&RAMP ID='t', T=    0.881807982587 / 
&RAMP ID='t', T=    0.884184474182 / 
&RAMP ID='t', T=    0.886560965778 / 
&RAMP ID='t', T=    0.888937457373 / 
&RAMP ID='t', T=    0.891313948969 / 
&RAMP ID='t', T=    0.893690440564 / 
&RAMP ID='t', T=    0.896066932160 / 
&RAMP ID='t', T=    0.898443423755 / 
&RAMP ID='t', T=    0.900819915351 / 
&RAMP ID='t', T=    0.903196406946 / 
&RAMP ID='t', T=    0.905572898542 / 
&RAMP ID='t', T=    0.907949390137 / 
&RAMP ID='t', T=    0.910325881733 / 
&RAMP ID='t', T=    0.912702373328 / 
&RAMP ID='t', T=    0.915078864923 / 
&RAMP ID='t', T=    0.917455356519 / 
&RAMP ID='t', T=    0.919831848114 / 
&RAMP ID='t', T=    0.922208339710 / 
&RAMP ID='t', T=    0.924584831305 / 
&RAMP ID='t', T=    0.926961322901 / 
&RAMP ID='t', T=    0.929337814496 / 
&RAMP ID='t', T=    0.931714306092 / 
&RAMP ID='t', T=    0.934090797687 / 
&RAMP ID='t', T=    0.935826420141 / 
&RAMP ID='t', T=    0.937562042594 / 
&RAMP ID='t', T=    0.939297665048 / 
&RAMP ID='t', T=    0.941033287501 / 
&RAMP ID='t', T=    0.942768909954 / 
&RAMP ID='t', T=    0.944007847191 / 
&RAMP ID='t', T=    0.945246784427 / 
&RAMP ID='t', T=    0.946485721663 / 
&RAMP ID='t', T=    0.947724658899 / 
&RAMP ID='t', T=    0.948963596135 / 
&RAMP ID='t', T=    0.950202533371 / 
&RAMP ID='t', T=    0.951441470607 / 
&RAMP ID='t', T=    0.952272138353 / 
&RAMP ID='t', T=    0.952864789758 / 
&RAMP ID='t', T=    0.953457441163 / 
&RAMP ID='t', T=    0.954050092568 / 
&RAMP ID='t', T=    0.954642743972 / 
&RAMP ID='t', T=    0.955235395377 / 
&RAMP ID='t', T=    0.955828046782 / 
&RAMP ID='t', T=    0.956420698187 / 
&RAMP ID='t', T=    0.957013349591 / 
&RAMP ID='t', T=    0.957451812645 / 
&RAMP ID='t', T=    0.957890275698 / 
&RAMP ID='t', T=    0.958328738751 / 
&RAMP ID='t', T=    0.958767201804 / 
&RAMP ID='t', T=    0.959082333403 / 
&RAMP ID='t', T=    0.959397465002 / 
&RAMP ID='t', T=    0.959712596600 / 
&RAMP ID='t', T=    0.960027728199 / 
&RAMP ID='t', T=    0.960239011497 / 
&RAMP ID='t', T=    0.960450294794 / 
&RAMP ID='t', T=    0.960661578092 / 
&RAMP ID='t', T=    0.960872861389 / 
&RAMP ID='t', T=    0.961022893128 / 
&RAMP ID='t', T=    0.961172924867 / 
&RAMP ID='t', T=    0.961322956606 / 
&RAMP ID='t', T=    0.961472988344 / 
&RAMP ID='t', T=    0.961623020083 / 
&RAMP ID='t', T=    0.961773051822 / 
&RAMP ID='t', T=    0.961923083561 / 
&RAMP ID='t', T=    0.962169998389 / 
&RAMP ID='t', T=    0.962416913216 / 
&RAMP ID='t', T=    0.962663828044 / 
&RAMP ID='t', T=    0.962910742872 / 
&RAMP ID='t', T=    0.963157657700 / 
&RAMP ID='t', T=    0.963404572527 / 
&RAMP ID='t', T=    0.963651487355 / 
&RAMP ID='t', T=    0.964114542405 / 
&RAMP ID='t', T=    0.964577597456 / 
&RAMP ID='t', T=    0.965040652506 / 
&RAMP ID='t', T=    0.965503707557 / 
&RAMP ID='t', T=    0.966199539554 / 
&RAMP ID='t', T=    0.966895371551 / 
&RAMP ID='t', T=    0.967591203549 / 
&RAMP ID='t', T=    0.968287035546 / 
&RAMP ID='t', T=    0.968982867543 / 
&RAMP ID='t', T=    0.969678699540 / 
&RAMP ID='t', T=    0.970755673802 / 
&RAMP ID='t', T=    0.971832648063 / 
&RAMP ID='t', T=    0.972909622324 / 
&RAMP ID='t', T=    0.973986596585 / 
&RAMP ID='t', T=    0.975063570846 / 
&RAMP ID='t', T=    0.976140545107 / 
&RAMP ID='t', T=    0.977217519369 / 
&RAMP ID='t', T=    0.978294493630 / 
&RAMP ID='t', T=    0.979371467891 / 
&RAMP ID='t', T=    0.980448442152 / 
&RAMP ID='t', T=    0.981525416413 / 
&RAMP ID='t', T=    0.982602390675 / 
&RAMP ID='t', T=    0.983679364936 / 
&RAMP ID='t', T=    0.984756339197 / 
&RAMP ID='t', T=    0.985833313458 / 
&RAMP ID='t', T=    0.986910287719 / 
&RAMP ID='t', T=    0.987987261980 / 
&RAMP ID='t', T=    0.989064236242 / 
&RAMP ID='t', T=    0.990141210503 / 
&RAMP ID='t', T=    0.991218184764 / 
&RAMP ID='t', T=    0.992295159025 / 
&RAMP ID='t', T=    0.993372133286 / 
&RAMP ID='t', T=    0.994449107548 / 
&RAMP ID='t', T=    0.995526081809 / 
&RAMP ID='t', T=    0.996603056070 / 
&RAMP ID='t', T=    0.997680030331 / 
&RAMP ID='t', T=    0.998757004592 / 
&RAMP ID='t', T=    0.999552931196 / 
&RAMP ID='t', T=    1.000348857799 / 
&RAMP ID='t', T=    1.001144784402 / 
&RAMP ID='t', T=    1.001940711006 / 
&RAMP ID='t', T=    1.002736637609 / 
&RAMP ID='t', T=    1.003532564212 / 
&RAMP ID='t', T=    1.004328490816 / 
&RAMP ID='t', T=    1.005124417419 / 
&RAMP ID='t', T=    1.005920344022 / 
&RAMP ID='t', T=    1.006716270626 / 
&RAMP ID='t', T=    1.007512197229 / 
&RAMP ID='t', T=    1.008308123832 / 
&RAMP ID='t', T=    1.009104050436 / 
&RAMP ID='t', T=    1.009899977039 / 
&RAMP ID='t', T=    1.010695903642 / 
&RAMP ID='t', T=    1.011491830246 / 
&RAMP ID='t', T=    1.012287756849 / 
&RAMP ID='t', T=    1.013083683452 / 
&RAMP ID='t', T=    1.013879610056 / 
&RAMP ID='t', T=    1.014675536659 / 
&RAMP ID='t', T=    1.015471463262 / 
&RAMP ID='t', T=    1.016267389866 / 
&RAMP ID='t', T=    1.017063316469 / 
&RAMP ID='t', T=    1.017859243072 / 
&RAMP ID='t', T=    1.018655169676 / 
&RAMP ID='t', T=    1.019451096279 / 
&RAMP ID='t', T=    1.020247022882 / 
&RAMP ID='t', T=    1.021042949486 / 
&RAMP ID='t', T=    1.021838876089 / 
&RAMP ID='t', T=    1.022634802692 / 
&RAMP ID='t', T=    1.023430729296 / 
&RAMP ID='t', T=    1.024226655899 / 
&RAMP ID='t', T=    1.025022582502 / 
&RAMP ID='t', T=    1.025818509106 / 
&RAMP ID='t', T=    1.026399685543 / 
&RAMP ID='t', T=    1.026980861980 / 
&RAMP ID='t', T=    1.027562038417 / 
&RAMP ID='t', T=    1.028143214854 / 
&RAMP ID='t', T=    1.028567812875 / 
&RAMP ID='t', T=    1.028872160071 / 
&RAMP ID='t', T=    1.029176507267 / 
&RAMP ID='t', T=    1.029480854463 / 
&RAMP ID='t', T=    1.029785201659 / 
&RAMP ID='t', T=    1.030089548855 / 
&RAMP ID='t', T=    1.030393896051 / 
&RAMP ID='t', T=    1.030698243247 / 
&RAMP ID='t', T=    1.031002590444 / 
&RAMP ID='t', T=    1.031204729800 / 
&RAMP ID='t', T=    1.031406869156 / 
&RAMP ID='t', T=    1.031609008513 / 
&RAMP ID='t', T=    1.031811147869 / 
&RAMP ID='t', T=    1.031941362162 / 
&RAMP ID='t', T=    1.032071576454 / 
&RAMP ID='t', T=    1.032201790747 / 
&RAMP ID='t', T=    1.032332005040 / 
&RAMP ID='t', T=    1.032462219333 / 
&RAMP ID='t', T=    1.032592433625 / 
&RAMP ID='t', T=    1.032722647918 / 
&RAMP ID='t', T=    1.032852862211 / 
&RAMP ID='t', T=    1.032983076503 / 
&RAMP ID='t', T=    1.033189584237 / 
&RAMP ID='t', T=    1.033396091971 / 
&RAMP ID='t', T=    1.033602599705 / 
&RAMP ID='t', T=    1.033809107438 / 
&RAMP ID='t', T=    1.034015615172 / 
&RAMP ID='t', T=    1.034222122906 / 
&RAMP ID='t', T=    1.034428630639 / 
&RAMP ID='t', T=    1.034635138373 / 
&RAMP ID='t', T=    1.034841646107 / 
&RAMP ID='t', T=    1.035161795622 / 
&RAMP ID='t', T=    1.035481945138 / 
&RAMP ID='t', T=    1.035802094653 / 
&RAMP ID='t', T=    1.036122244168 / 
&RAMP ID='t', T=    1.036442393684 / 
&RAMP ID='t', T=    1.036976446992 / 
&RAMP ID='t', T=    1.037510500300 / 
&RAMP ID='t', T=    1.038044553608 / 
&RAMP ID='t', T=    1.038578606916 / 
&RAMP ID='t', T=    1.039112660224 / 
&RAMP ID='t', T=    1.039646713532 / 
&RAMP ID='t', T=    1.040180766840 / 
&RAMP ID='t', T=    1.040714820148 / 
&RAMP ID='t', T=    1.041248873456 / 
&RAMP ID='t', T=    1.041782926764 / 
&RAMP ID='t', T=    1.042177728567 / 
&RAMP ID='t', T=    1.042572530370 / 
&RAMP ID='t', T=    1.042967332172 / 
&RAMP ID='t', T=    1.043362133975 / 
&RAMP ID='t', T=    1.043756935777 / 
&RAMP ID='t', T=    1.044151737580 / 
&RAMP ID='t', T=    1.044546539383 / 
&RAMP ID='t', T=    1.044941341185 / 
&RAMP ID='t', T=    1.045336142988 / 
&RAMP ID='t', T=    1.045730944791 / 
&RAMP ID='t', T=    1.046125746593 / 
&RAMP ID='t', T=    1.046418599377 / 
&RAMP ID='t', T=    1.046711452161 / 
&RAMP ID='t', T=    1.047004304945 / 
&RAMP ID='t', T=    1.047297157729 / 
&RAMP ID='t', T=    1.047590010512 / 
&RAMP ID='t', T=    1.047882863296 / 
&RAMP ID='t', T=    1.048175716080 / 
&RAMP ID='t', T=    1.048468568864 / 
&RAMP ID='t', T=    1.048761421648 / 
&RAMP ID='t', T=    1.049054274432 / 
&RAMP ID='t', T=    1.049256753982 / 
&RAMP ID='t', T=    1.049393032084 / 
&RAMP ID='t', T=    1.049486975143 / 
&RAMP ID='t', T=    1.049553608057 / 
&RAMP ID='t', T=    1.049602421781 / 
&RAMP ID='t', T=    1.049651235505 / 
&RAMP ID='t', T=    1.049700049230 / 
&RAMP ID='t', T=    1.049748862954 / 
&RAMP ID='t', T=    1.049797676678 / 
&RAMP ID='t', T=    1.049846490402 / 
&RAMP ID='t', T=    1.049895304127 / 
&RAMP ID='t', T=    1.049944117851 / 
&RAMP ID='t', T=    1.049992931575 / 
&RAMP ID='t', T=    1.050085966698 / 
&RAMP ID='t', T=    1.050179001820 / 
&RAMP ID='t', T=    1.050272036942 / 
&RAMP ID='t', T=    1.050365072064 / 
&RAMP ID='t', T=    1.050514892210 / 
&RAMP ID='t', T=    1.050664712357 / 
&RAMP ID='t', T=    1.050814532503 / 
&RAMP ID='t', T=    1.050964352649 / 
&RAMP ID='t', T=    1.051114172795 / 
&RAMP ID='t', T=    1.051339165659 / 
&RAMP ID='t', T=    1.051564158522 / 
&RAMP ID='t', T=    1.051789151386 / 
&RAMP ID='t', T=    1.052014144250 / 
&RAMP ID='t', T=    1.052239137113 / 
&RAMP ID='t', T=    1.052464129977 / 
&RAMP ID='t', T=    1.052689122840 / 
&RAMP ID='t', T=    1.052914115704 / 
&RAMP ID='t', T=    1.053139108568 / 
&RAMP ID='t', T=    1.053364101431 / 
&RAMP ID='t', T=    1.053589094295 / 
&RAMP ID='t', T=    1.053814087159 / 
&RAMP ID='t', T=    1.054039080022 / 
&RAMP ID='t', T=    1.054264072886 / 
&RAMP ID='t', T=    1.054429830484 / 
&RAMP ID='t', T=    1.054549191397 / 
&RAMP ID='t', T=    1.054636997617 / 
&RAMP ID='t', T=    1.054724803837 / 
&RAMP ID='t', T=    1.054812610057 / 
&RAMP ID='t', T=    1.054900416278 / 
&RAMP ID='t', T=    1.054988222498 / 
&RAMP ID='t', T=    1.055050956805 / 
&RAMP ID='t', T=    1.055094923705 / 
&RAMP ID='t', T=    1.055126698484 / 
&RAMP ID='t', T=    1.055158473263 / 
&RAMP ID='t', T=    1.055190248042 / 
&RAMP ID='t', T=    1.055222022821 / 
&RAMP ID='t', T=    1.055253797601 / 
&RAMP ID='t', T=    1.055277268631 / 
&RAMP ID='t', T=    1.055300739662 / 
&RAMP ID='t', T=    1.055324210693 / 
&RAMP ID='t', T=    1.055347681723 / 
&RAMP ID='t', T=    1.055364970293 / 
&RAMP ID='t', T=    1.055377024408 / 
&RAMP ID='t', T=    1.055385690855 / 
&RAMP ID='t', T=    1.055394357301 / 
&RAMP ID='t', T=    1.055403023748 / 
&RAMP ID='t', T=    1.055411690195 / 
&RAMP ID='t', T=    1.055420356641 / 
&RAMP ID='t', T=    1.055429023088 / 
&RAMP ID='t', T=    1.055437689535 / 
&RAMP ID='t', T=    1.055446355981 / 
&RAMP ID='t', T=    1.055455022428 / 
&RAMP ID='t', T=    1.055468970624 / 
&RAMP ID='t', T=    1.055482918820 / 
&RAMP ID='t', T=    1.055496867016 / 
&RAMP ID='t', T=    1.055510815212 / 
&RAMP ID='t', T=    1.055543177272 / 
&RAMP ID='t', T=    1.055614488587 / 
&RAMP ID='t', T=    1.055685799902 / 
&RAMP ID='t', T=    1.055757111217 / 
&RAMP ID='t', T=    1.055828422531 / 
&RAMP ID='t', T=    1.055899733846 / 
&RAMP ID='t', T=    1.055971045161 / 
&RAMP ID='t', T=    1.056042356476 / 
&RAMP ID='t', T=    1.056113667791 / 
&RAMP ID='t', T=    1.056228414684 / 
&RAMP ID='t', T=    1.056343161578 / 
&RAMP ID='t', T=    1.056457908471 / 
&RAMP ID='t', T=    1.056572655364 / 
&RAMP ID='t', T=    1.056687402258 / 
&RAMP ID='t', T=    1.056802149151 / 
&RAMP ID='t', T=    1.056916896045 / 
&RAMP ID='t', T=    1.057031642938 / 
&RAMP ID='t', T=    1.057146389832 / 
&RAMP ID='t', T=    1.057261136725 / 
&RAMP ID='t', T=    1.057375883619 / 
&RAMP ID='t', T=    1.057490630512 / 
&RAMP ID='t', T=    1.057605377406 / 
&RAMP ID='t', T=    1.057720124299 / 
&RAMP ID='t', T=    1.057834871193 / 
&RAMP ID='t', T=    1.057949618086 / 
&RAMP ID='t', T=    1.058064364980 / 
&RAMP ID='t', T=    1.058179111873 / 
&RAMP ID='t', T=    1.058263398062 / 
&RAMP ID='t', T=    1.058323131419 / 
&RAMP ID='t', T=    1.058366361187 / 
&RAMP ID='t', T=    1.058409590955 / 
&RAMP ID='t', T=    1.058452820724 / 
&RAMP ID='t', T=    1.058496050492 / 
&RAMP ID='t', T=    1.058539280260 / 
&RAMP ID='t', T=    1.058570633526 / 
&RAMP ID='t', T=    1.058593004816 / 
&RAMP ID='t', T=    1.058609534880 / 
&RAMP ID='t', T=    1.058626064943 / 
&RAMP ID='t', T=    1.058642595007 / 
&RAMP ID='t', T=    1.058659125070 / 
&RAMP ID='t', T=    1.058675655134 / 
&RAMP ID='t', T=    1.058692185197 / 
&RAMP ID='t', T=    1.058708715261 / 
&RAMP ID='t', T=    1.058735584682 / 
&RAMP ID='t', T=    1.058762454102 / 
&RAMP ID='t', T=    1.058789323523 / 
&RAMP ID='t', T=    1.058816192944 / 
&RAMP ID='t', T=    1.058874745562 / 
&RAMP ID='t', T=    1.058972390429 / 
&RAMP ID='t', T=    1.059070035295 / 
&RAMP ID='t', T=    1.059167680162 / 
&RAMP ID='t', T=    1.059265325029 / 
&RAMP ID='t', T=    1.059362969895 / 
&RAMP ID='t', T=    1.059460614762 / 
&RAMP ID='t', T=    1.059558259629 / 
&RAMP ID='t', T=    1.059655904495 / 
&RAMP ID='t', T=    1.059753549362 / 
&RAMP ID='t', T=    1.059821470529 / 
&RAMP ID='t', T=    1.059889391696 / 
&RAMP ID='t', T=    1.059957312863 / 
&RAMP ID='t', T=    1.060025234031 / 
&RAMP ID='t', T=    1.060093155198 / 
&RAMP ID='t', T=    1.060161076365 / 
&RAMP ID='t', T=    1.060228997532 / 
&RAMP ID='t', T=    1.060296918699 / 
&RAMP ID='t', T=    1.060364839866 / 
&RAMP ID='t', T=    1.060432761034 / 
&RAMP ID='t', T=    1.060500682201 / 
&RAMP ID='t', T=    1.060568603368 / 
&RAMP ID='t', T=    1.060636524535 / 
&RAMP ID='t', T=    1.060704445702 / 
&RAMP ID='t', T=    1.060772366869 / 
&RAMP ID='t', T=    1.060840288037 / 
&RAMP ID='t', T=    1.060887473653 / 
&RAMP ID='t', T=    1.060934659270 / 
&RAMP ID='t', T=    1.060981844886 / 
&RAMP ID='t', T=    1.061029030503 / 
&RAMP ID='t', T=    1.061076216119 / 
&RAMP ID='t', T=    1.061108330743 / 
&RAMP ID='t', T=    1.061130611784 / 
&RAMP ID='t', T=    1.061152892826 / 
&RAMP ID='t', T=    1.061175173867 / 
&RAMP ID='t', T=    1.061197454908 / 
&RAMP ID='t', T=    1.061219735949 / 
&RAMP ID='t', T=    1.061242016990 / 
&RAMP ID='t', T=    1.061264298031 / 
&RAMP ID='t', T=    1.061286579072 / 
&RAMP ID='t', T=    1.061308860113 / 
&RAMP ID='t', T=    1.061331141154 / 
&RAMP ID='t', T=    1.061353422195 / 
&RAMP ID='t', T=    1.061375703236 / 
&RAMP ID='t', T=    1.061397984278 / 
&RAMP ID='t', T=    1.061420265319 / 
&RAMP ID='t', T=    1.061442546360 / 
&RAMP ID='t', T=    1.061464827401 / 
&RAMP ID='t', T=    1.061487108442 / 
&RAMP ID='t', T=    1.061509389483 / 
&RAMP ID='t', T=    1.061531670524 / 
&RAMP ID='t', T=    1.061553951565 / 
&RAMP ID='t', T=    1.061576232606 / 
&RAMP ID='t', T=    1.061598513647 / 
&RAMP ID='t', T=    1.061620794688 / 
&RAMP ID='t', T=    1.061643075730 / 
&RAMP ID='t', T=    1.061665356771 / 
&RAMP ID='t', T=    1.061687637812 / 
&RAMP ID='t', T=    1.061726239844 / 
&RAMP ID='t', T=    1.061764841875 / 
&RAMP ID='t', T=    1.061803443907 / 
&RAMP ID='t', T=    1.061842045939 / 
&RAMP ID='t', T=    1.061880647971 / 
&RAMP ID='t', T=    1.061945801586 / 
&RAMP ID='t', T=    1.062010955202 / 
&RAMP ID='t', T=    1.062076108817 / 
&RAMP ID='t', T=    1.062141262432 / 
&RAMP ID='t', T=    1.062206416048 / 
&RAMP ID='t', T=    1.062271569663 / 
&RAMP ID='t', T=    1.062336723279 / 
&RAMP ID='t', T=    1.062401876894 / 
&RAMP ID='t', T=    1.062467030509 / 
&RAMP ID='t', T=    1.062532184125 / 
&RAMP ID='t', T=    1.062597337740 / 
&RAMP ID='t', T=    1.062662491356 / 
&RAMP ID='t', T=    1.062727644971 / 
&RAMP ID='t', T=    1.062792798586 / 
&RAMP ID='t', T=    1.062838833521 / 
&RAMP ID='t', T=    1.062870446924 / 
&RAMP ID='t', T=    1.062892748043 / 
&RAMP ID='t', T=    1.062909288404 / 
&RAMP ID='t', T=    1.062925828765 / 
&RAMP ID='t', T=    1.062942369125 / 