&HEAD CHID='ignition_delay_T900K_Phi1p4', TITLE='ignition_delay T=900K Phi=1.4' /

&MISC GVEC(3)=0.0, NOISE=F, STRATIFICATION=F, SIMULATION_MODE='DNS' /

&RADI RADIATION=F/
&SURF ID='DEF',DEFAULT=T,ADIABATIC=T/

&COMB FINITE_RATE_MIN_TEMP=300,ZZ_MIN_GLOBAL=1E-15,INITIAL_UNMIXED_FRACTION=0.0,ODE_SOLVER='CVODE',ODE_MIN_ATOL=1E-15,ODE_REL_ERROR=1E-9/
&TIME T_END=10, RAMP_TIME='t' /
&DUMP FLUSH_FILE_BUFFERS=F, DT_DEVC=1e-20/

&CATF OTHER_FILES='../../Utilities/Input_Libraries/Chemical_Mechanisms/FDS/grimech30.fds' /

&MESH IJK=5,1,5, XB=0.0,1.0,0.0,0.2,0.0,1.0 /
&OBST XB=0.0,1.0,0.0,0.2,0.0,1.0/
&HOLE XB=0.4,0.6,-1.0,1.0,0.4,0.6/
&INIT XB=0.4,0.6,-1.0,1.0,0.4,0.6, MASS_FRACTION(1)=0.21538665, SPEC_ID(1)='O2',MASS_FRACTION(2)=0.07559265,SPEC_ID(2)='CH4',  TEMPERATURE=626.85 /
&DEVC XYZ=0.5,0.0,0.5, QUANTITY='MASS FRACTION', SPEC_ID='OH',  ID='OH' /
&DEVC XYZ=0.5,0.0,0.5, QUANTITY='TEMPERATURE', ID='TMP'/

&RAMP ID='t', T=    0.000000000047 / 
&RAMP ID='t', T=    0.000000474327 / 
&RAMP ID='t', T=    0.000005217120 / 
&RAMP ID='t', T=    0.000009959914 / 
&RAMP ID='t', T=    0.000021933383 / 
&RAMP ID='t', T=    0.000033906852 / 
&RAMP ID='t', T=    0.000045880321 / 
&RAMP ID='t', T=    0.000071722613 / 
&RAMP ID='t', T=    0.000118804347 / 
&RAMP ID='t', T=    0.000199817940 / 
&RAMP ID='t', T=    0.000324259692 / 
&RAMP ID='t', T=    0.000448701443 / 
&RAMP ID='t', T=    0.000573143195 / 
&RAMP ID='t', T=    0.000885735058 / 
&RAMP ID='t', T=    0.001198326921 / 
&RAMP ID='t', T=    0.001510918784 / 
&RAMP ID='t', T=    0.001823510647 / 
&RAMP ID='t', T=    0.002136102510 / 
&RAMP ID='t', T=    0.002961856927 / 
&RAMP ID='t', T=    0.003787611343 / 
&RAMP ID='t', T=    0.004613365759 / 
&RAMP ID='t', T=    0.005439120176 / 
&RAMP ID='t', T=    0.006264874592 / 
&RAMP ID='t', T=    0.007090629009 / 
&RAMP ID='t', T=    0.007916383425 / 
&RAMP ID='t', T=    0.009184707496 / 
&RAMP ID='t', T=    0.010453031567 / 
&RAMP ID='t', T=    0.011721355637 / 
&RAMP ID='t', T=    0.012989679708 / 
&RAMP ID='t', T=    0.014258003779 / 
&RAMP ID='t', T=    0.015526327850 / 
&RAMP ID='t', T=    0.016794651921 / 
&RAMP ID='t', T=    0.018062975991 / 
&RAMP ID='t', T=    0.019331300062 / 
&RAMP ID='t', T=    0.020599624133 / 
&RAMP ID='t', T=    0.021867948204 / 
&RAMP ID='t', T=    0.023950792042 / 
&RAMP ID='t', T=    0.026033635881 / 
&RAMP ID='t', T=    0.028116479720 / 
&RAMP ID='t', T=    0.030199323558 / 
&RAMP ID='t', T=    0.032282167397 / 
&RAMP ID='t', T=    0.034365011236 / 
&RAMP ID='t', T=    0.036447855074 / 
&RAMP ID='t', T=    0.038530698913 / 
&RAMP ID='t', T=    0.040613542752 / 
&RAMP ID='t', T=    0.042696386590 / 
&RAMP ID='t', T=    0.044779230429 / 
&RAMP ID='t', T=    0.046862074267 / 
&RAMP ID='t', T=    0.048944918106 / 
&RAMP ID='t', T=    0.051027761945 / 
&RAMP ID='t', T=    0.052554710279 / 
&RAMP ID='t', T=    0.054081658614 / 
&RAMP ID='t', T=    0.055608606949 / 
&RAMP ID='t', T=    0.057135555283 / 
&RAMP ID='t', T=    0.058662503618 / 
&RAMP ID='t', T=    0.060189451953 / 
&RAMP ID='t', T=    0.061716400288 / 
&RAMP ID='t', T=    0.063243348622 / 
&RAMP ID='t', T=    0.064770296957 / 
&RAMP ID='t', T=    0.066297245292 / 
&RAMP ID='t', T=    0.067824193626 / 
&RAMP ID='t', T=    0.069351141961 / 
&RAMP ID='t', T=    0.070454242109 / 
&RAMP ID='t', T=    0.071557342256 / 
&RAMP ID='t', T=    0.072660442404 / 
&RAMP ID='t', T=    0.073763542551 / 
&RAMP ID='t', T=    0.074866642699 / 
&RAMP ID='t', T=    0.075969742847 / 
&RAMP ID='t', T=    0.077072842994 / 
&RAMP ID='t', T=    0.078175943142 / 
&RAMP ID='t', T=    0.079279043289 / 
&RAMP ID='t', T=    0.080382143437 / 
&RAMP ID='t', T=    0.082113223218 / 
&RAMP ID='t', T=    0.083844302999 / 
&RAMP ID='t', T=    0.085575382780 / 
&RAMP ID='t', T=    0.087306462560 / 
&RAMP ID='t', T=    0.089037542341 / 
&RAMP ID='t', T=    0.090768622122 / 
&RAMP ID='t', T=    0.092499701903 / 
&RAMP ID='t', T=    0.094230781684 / 
&RAMP ID='t', T=    0.095961861465 / 
&RAMP ID='t', T=    0.097692941246 / 
&RAMP ID='t', T=    0.100332734560 / 
&RAMP ID='t', T=    0.102972527874 / 
&RAMP ID='t', T=    0.105612321188 / 
&RAMP ID='t', T=    0.108252114502 / 
&RAMP ID='t', T=    0.110891907816 / 
&RAMP ID='t', T=    0.113531701130 / 
&RAMP ID='t', T=    0.116171494445 / 
&RAMP ID='t', T=    0.118811287759 / 
&RAMP ID='t', T=    0.121451081073 / 
&RAMP ID='t', T=    0.124090874387 / 
&RAMP ID='t', T=    0.126730667701 / 
&RAMP ID='t', T=    0.129370461015 / 
&RAMP ID='t', T=    0.132010254329 / 
&RAMP ID='t', T=    0.134650047644 / 
&RAMP ID='t', T=    0.137289840958 / 
&RAMP ID='t', T=    0.139929634272 / 
&RAMP ID='t', T=    0.144017185504 / 
&RAMP ID='t', T=    0.148104736737 / 
&RAMP ID='t', T=    0.152192287970 / 
&RAMP ID='t', T=    0.156279839202 / 
&RAMP ID='t', T=    0.160367390435 / 
&RAMP ID='t', T=    0.164454941667 / 
&RAMP ID='t', T=    0.168542492900 / 
&RAMP ID='t', T=    0.172630044133 / 
&RAMP ID='t', T=    0.176717595365 / 
&RAMP ID='t', T=    0.180805146598 / 
&RAMP ID='t', T=    0.184892697830 / 
&RAMP ID='t', T=    0.188980249063 / 
&RAMP ID='t', T=    0.193067800295 / 
&RAMP ID='t', T=    0.197155351528 / 
&RAMP ID='t', T=    0.201242902761 / 
&RAMP ID='t', T=    0.205330453993 / 
&RAMP ID='t', T=    0.209418005226 / 
&RAMP ID='t', T=    0.213505556458 / 
&RAMP ID='t', T=    0.217593107691 / 
&RAMP ID='t', T=    0.221680658924 / 
&RAMP ID='t', T=    0.225768210156 / 
&RAMP ID='t', T=    0.229855761389 / 
&RAMP ID='t', T=    0.233943312621 / 
&RAMP ID='t', T=    0.238030863854 / 
&RAMP ID='t', T=    0.242118415087 / 
&RAMP ID='t', T=    0.246205966319 / 
&RAMP ID='t', T=    0.252445605184 / 
&RAMP ID='t', T=    0.258685244049 / 
&RAMP ID='t', T=    0.264924882913 / 
&RAMP ID='t', T=    0.271164521778 / 
&RAMP ID='t', T=    0.277404160643 / 
&RAMP ID='t', T=    0.283643799508 / 
&RAMP ID='t', T=    0.289883438372 / 
&RAMP ID='t', T=    0.296123077237 / 
&RAMP ID='t', T=    0.302362716102 / 
&RAMP ID='t', T=    0.308602354967 / 
&RAMP ID='t', T=    0.314841993831 / 
&RAMP ID='t', T=    0.324597957755 / 
&RAMP ID='t', T=    0.334353921680 / 
&RAMP ID='t', T=    0.344109885604 / 
&RAMP ID='t', T=    0.353865849528 / 
&RAMP ID='t', T=    0.363621813452 / 
&RAMP ID='t', T=    0.373377777376 / 
&RAMP ID='t', T=    0.383133741301 / 
&RAMP ID='t', T=    0.392889705225 / 
&RAMP ID='t', T=    0.402645669149 / 
&RAMP ID='t', T=    0.412401633073 / 
&RAMP ID='t', T=    0.422157596997 / 
&RAMP ID='t', T=    0.431913560921 / 
&RAMP ID='t', T=    0.441669524846 / 
&RAMP ID='t', T=    0.451425488770 / 
&RAMP ID='t', T=    0.461181452694 / 
&RAMP ID='t', T=    0.475877283244 / 
&RAMP ID='t', T=    0.490573113794 / 
&RAMP ID='t', T=    0.505268944344 / 
&RAMP ID='t', T=    0.519964774894 / 
&RAMP ID='t', T=    0.534660605444 / 
&RAMP ID='t', T=    0.549356435994 / 
&RAMP ID='t', T=    0.564052266544 / 
&RAMP ID='t', T=    0.578748097094 / 
&RAMP ID='t', T=    0.593443927644 / 
&RAMP ID='t', T=    0.608139758194 / 
&RAMP ID='t', T=    0.622835588744 / 
&RAMP ID='t', T=    0.637531419294 / 
&RAMP ID='t', T=    0.652227249844 / 
&RAMP ID='t', T=    0.666923080394 / 
&RAMP ID='t', T=    0.681618910944 / 
&RAMP ID='t', T=    0.703974911595 / 
&RAMP ID='t', T=    0.726330912246 / 
&RAMP ID='t', T=    0.748686912897 / 
&RAMP ID='t', T=    0.771042913548 / 
&RAMP ID='t', T=    0.793398914200 / 
&RAMP ID='t', T=    0.815754914851 / 
&RAMP ID='t', T=    0.838110915502 / 
&RAMP ID='t', T=    0.860466916153 / 
&RAMP ID='t', T=    0.882822916804 / 
&RAMP ID='t', T=    0.905178917455 / 
&RAMP ID='t', T=    0.938753682648 / 
&RAMP ID='t', T=    0.972328447840 / 
&RAMP ID='t', T=    1.005903213033 / 
&RAMP ID='t', T=    1.039477978225 / 
&RAMP ID='t', T=    1.073052743418 / 
&RAMP ID='t', T=    1.106627508610 / 
&RAMP ID='t', T=    1.160469720565 / 
&RAMP ID='t', T=    1.214311932519 / 
&RAMP ID='t', T=    1.268154144474 / 
&RAMP ID='t', T=    1.321996356428 / 
&RAMP ID='t', T=    1.375838568383 / 
&RAMP ID='t', T=    1.429680780337 / 
&RAMP ID='t', T=    1.483522992292 / 
&RAMP ID='t', T=    1.537365204246 / 
&RAMP ID='t', T=    1.591207416201 / 
&RAMP ID='t', T=    1.645049628155 / 
&RAMP ID='t', T=    1.698891840110 / 
&RAMP ID='t', T=    1.752734052065 / 
&RAMP ID='t', T=    1.791941505151 / 
&RAMP ID='t', T=    1.831148958237 / 
&RAMP ID='t', T=    1.870356411323 / 
&RAMP ID='t', T=    1.909563864410 / 
&RAMP ID='t', T=    1.948771317496 / 
&RAMP ID='t', T=    1.987978770582 / 
&RAMP ID='t', T=    2.027186223668 / 
&RAMP ID='t', T=    2.066393676755 / 
&RAMP ID='t', T=    2.105601129841 / 
&RAMP ID='t', T=    2.144808582927 / 
&RAMP ID='t', T=    2.184016036013 / 
&RAMP ID='t', T=    2.223223489100 / 
&RAMP ID='t', T=    2.262430942186 / 
&RAMP ID='t', T=    2.301638395272 / 
&RAMP ID='t', T=    2.340845848358 / 
&RAMP ID='t', T=    2.380053301445 / 
&RAMP ID='t', T=    2.419260754531 / 
&RAMP ID='t', T=    2.458468207617 / 
&RAMP ID='t', T=    2.497675660703 / 
&RAMP ID='t', T=    2.526428607233 / 
&RAMP ID='t', T=    2.555181553763 / 
&RAMP ID='t', T=    2.583934500292 / 
&RAMP ID='t', T=    2.612687446822 / 
&RAMP ID='t', T=    2.641440393352 / 
&RAMP ID='t', T=    2.670193339881 / 
&RAMP ID='t', T=    2.698946286411 / 
&RAMP ID='t', T=    2.720026612306 / 
&RAMP ID='t', T=    2.741106938202 / 
&RAMP ID='t', T=    2.762187264097 / 
&RAMP ID='t', T=    2.783267589992 / 
&RAMP ID='t', T=    2.804347915888 / 
&RAMP ID='t', T=    2.825428241783 / 
&RAMP ID='t', T=    2.846508567678 / 
&RAMP ID='t', T=    2.867588893573 / 
&RAMP ID='t', T=    2.888669219469 / 
&RAMP ID='t', T=    2.909749545364 / 
&RAMP ID='t', T=    2.930829871259 / 
&RAMP ID='t', T=    2.951910197155 / 
&RAMP ID='t', T=    2.972990523050 / 
&RAMP ID='t', T=    2.994070848945 / 
&RAMP ID='t', T=    3.009334645805 / 
&RAMP ID='t', T=    3.024598442664 / 
&RAMP ID='t', T=    3.039862239523 / 
&RAMP ID='t', T=    3.055126036382 / 
&RAMP ID='t', T=    3.070389833242 / 
&RAMP ID='t', T=    3.085653630101 / 
&RAMP ID='t', T=    3.100917426960 / 
&RAMP ID='t', T=    3.116181223820 / 
&RAMP ID='t', T=    3.131445020679 / 
&RAMP ID='t', T=    3.146708817538 / 
&RAMP ID='t', T=    3.161972614398 / 
&RAMP ID='t', T=    3.177236411257 / 
&RAMP ID='t', T=    3.203242305063 / 
&RAMP ID='t', T=    3.229248198868 / 
&RAMP ID='t', T=    3.255254092674 / 
&RAMP ID='t', T=    3.281259986479 / 
&RAMP ID='t', T=    3.307265880285 / 
&RAMP ID='t', T=    3.333271774090 / 
&RAMP ID='t', T=    3.359277667896 / 
&RAMP ID='t', T=    3.401378039379 / 
&RAMP ID='t', T=    3.443478410863 / 
&RAMP ID='t', T=    3.485578782346 / 
&RAMP ID='t', T=    3.527679153830 / 
&RAMP ID='t', T=    3.569779525313 / 
&RAMP ID='t', T=    3.611879896797 / 
&RAMP ID='t', T=    3.653980268280 / 
&RAMP ID='t', T=    3.696080639764 / 
&RAMP ID='t', T=    3.738181011247 / 
&RAMP ID='t', T=    3.780281382731 / 
&RAMP ID='t', T=    3.811351813440 / 
&RAMP ID='t', T=    3.842422244149 / 
&RAMP ID='t', T=    3.873492674858 / 
&RAMP ID='t', T=    3.904563105568 / 
&RAMP ID='t', T=    3.935633536277 / 
&RAMP ID='t', T=    3.958634318219 / 
&RAMP ID='t', T=    3.981635100162 / 
&RAMP ID='t', T=    4.004635882104 / 
&RAMP ID='t', T=    4.027636664047 / 
&RAMP ID='t', T=    4.050637445989 / 
&RAMP ID='t', T=    4.073638227932 / 
&RAMP ID='t', T=    4.096639009874 / 
&RAMP ID='t', T=    4.119639791816 / 
&RAMP ID='t', T=    4.142640573759 / 
&RAMP ID='t', T=    4.165641355701 / 
&RAMP ID='t', T=    4.188642137644 / 
&RAMP ID='t', T=    4.211642919586 / 
&RAMP ID='t', T=    4.234643701529 / 
&RAMP ID='t', T=    4.257644483471 / 
&RAMP ID='t', T=    4.280645265413 / 
&RAMP ID='t', T=    4.303646047356 / 
&RAMP ID='t', T=    4.326646829298 / 
&RAMP ID='t', T=    4.349647611241 / 
&RAMP ID='t', T=    4.366089593001 / 
&RAMP ID='t', T=    4.382531574762 / 
&RAMP ID='t', T=    4.398973556522 / 
&RAMP ID='t', T=    4.415415538283 / 
&RAMP ID='t', T=    4.431857520043 / 
&RAMP ID='t', T=    4.448299501804 / 
&RAMP ID='t', T=    4.464741483565 / 
&RAMP ID='t', T=    4.481183465325 / 
&RAMP ID='t', T=    4.497625447086 / 
&RAMP ID='t', T=    4.514067428846 / 
&RAMP ID='t', T=    4.530509410607 / 
&RAMP ID='t', T=    4.556532560736 / 
&RAMP ID='t', T=    4.582555710865 / 
&RAMP ID='t', T=    4.608578860994 / 
&RAMP ID='t', T=    4.634602011123 / 
&RAMP ID='t', T=    4.660625161252 / 
&RAMP ID='t', T=    4.686648311381 / 
&RAMP ID='t', T=    4.712671461510 / 
&RAMP ID='t', T=    4.738694611639 / 
&RAMP ID='t', T=    4.764717761768 / 
&RAMP ID='t', T=    4.790740911898 / 
&RAMP ID='t', T=    4.816764062027 / 
&RAMP ID='t', T=    4.842787212156 / 
&RAMP ID='t', T=    4.868810362285 / 
&RAMP ID='t', T=    4.894833512414 / 
&RAMP ID='t', T=    4.920856662543 / 
&RAMP ID='t', T=    4.946879812672 / 
&RAMP ID='t', T=    4.972902962801 / 
&RAMP ID='t', T=    4.998926112930 / 
&RAMP ID='t', T=    5.024949263059 / 
&RAMP ID='t', T=    5.044111913222 / 
&RAMP ID='t', T=    5.063274563385 / 
&RAMP ID='t', T=    5.082437213548 / 
&RAMP ID='t', T=    5.101599863710 / 
&RAMP ID='t', T=    5.120762513873 / 
&RAMP ID='t', T=    5.139925164036 / 
&RAMP ID='t', T=    5.159087814199 / 
&RAMP ID='t', T=    5.178250464362 / 
&RAMP ID='t', T=    5.197413114524 / 
&RAMP ID='t', T=    5.216575764687 / 
&RAMP ID='t', T=    5.230636150161 / 
&RAMP ID='t', T=    5.244696535635 / 
&RAMP ID='t', T=    5.258756921108 / 
&RAMP ID='t', T=    5.272817306582 / 
&RAMP ID='t', T=    5.286877692056 / 
&RAMP ID='t', T=    5.300938077529 / 
&RAMP ID='t', T=    5.314998463003 / 
&RAMP ID='t', T=    5.329058848477 / 
&RAMP ID='t', T=    5.343119233951 / 
&RAMP ID='t', T=    5.357179619424 / 
&RAMP ID='t', T=    5.371240004898 / 
&RAMP ID='t', T=    5.385300390372 / 
&RAMP ID='t', T=    5.399360775845 / 
&RAMP ID='t', T=    5.413421161319 / 
&RAMP ID='t', T=    5.427481546793 / 
&RAMP ID='t', T=    5.441541932267 / 
&RAMP ID='t', T=    5.455602317740 / 
&RAMP ID='t', T=    5.469662703214 / 
&RAMP ID='t', T=    5.483723088688 / 
&RAMP ID='t', T=    5.497783474161 / 
&RAMP ID='t', T=    5.511843859635 / 
&RAMP ID='t', T=    5.525904245109 / 
&RAMP ID='t', T=    5.539964630583 / 
&RAMP ID='t', T=    5.554025016056 / 
&RAMP ID='t', T=    5.568085401530 / 
&RAMP ID='t', T=    5.582145787004 / 
&RAMP ID='t', T=    5.596206172477 / 
&RAMP ID='t', T=    5.610266557951 / 
&RAMP ID='t', T=    5.624326943425 / 
&RAMP ID='t', T=    5.638387328899 / 
&RAMP ID='t', T=    5.652447714372 / 
&RAMP ID='t', T=    5.666508099846 / 
&RAMP ID='t', T=    5.680568485320 / 
&RAMP ID='t', T=    5.694628870793 / 
&RAMP ID='t', T=    5.715777476654 / 
&RAMP ID='t', T=    5.736926082515 / 
&RAMP ID='t', T=    5.758074688375 / 
&RAMP ID='t', T=    5.779223294236 / 
&RAMP ID='t', T=    5.800371900096 / 
&RAMP ID='t', T=    5.834391033367 / 
&RAMP ID='t', T=    5.868410166638 / 
&RAMP ID='t', T=    5.902429299908 / 
&RAMP ID='t', T=    5.936448433179 / 
&RAMP ID='t', T=    5.970467566450 / 
&RAMP ID='t', T=    6.004486699721 / 
&RAMP ID='t', T=    6.038505832991 / 
&RAMP ID='t', T=    6.072524966262 / 
&RAMP ID='t', T=    6.106544099533 / 
&RAMP ID='t', T=    6.140563232803 / 
&RAMP ID='t', T=    6.174582366074 / 
&RAMP ID='t', T=    6.208601499345 / 
&RAMP ID='t', T=    6.242620632616 / 
&RAMP ID='t', T=    6.276639765886 / 
&RAMP ID='t', T=    6.310658899157 / 
&RAMP ID='t', T=    6.344678032428 / 
&RAMP ID='t', T=    6.378697165699 / 
&RAMP ID='t', T=    6.412716298969 / 
&RAMP ID='t', T=    6.437528669515 / 
&RAMP ID='t', T=    6.462341040060 / 
&RAMP ID='t', T=    6.487153410606 / 
&RAMP ID='t', T=    6.504901956623 / 
&RAMP ID='t', T=    6.522650502640 / 
&RAMP ID='t', T=    6.540399048657 / 
&RAMP ID='t', T=    6.558147594674 / 
&RAMP ID='t', T=    6.575896140691 / 
&RAMP ID='t', T=    6.593644686708 / 
&RAMP ID='t', T=    6.611393232725 / 
&RAMP ID='t', T=    6.623815580072 / 
&RAMP ID='t', T=    6.636237927419 / 
&RAMP ID='t', T=    6.648660274766 / 
&RAMP ID='t', T=    6.661082622113 / 
&RAMP ID='t', T=    6.673504969460 / 
&RAMP ID='t', T=    6.685927316807 / 
&RAMP ID='t', T=    6.698349664154 / 
&RAMP ID='t', T=    6.710772011502 / 
&RAMP ID='t', T=    6.723194358849 / 
&RAMP ID='t', T=    6.732282672449 / 
&RAMP ID='t', T=    6.741370986049 / 
&RAMP ID='t', T=    6.750459299649 / 
&RAMP ID='t', T=    6.759547613249 / 
&RAMP ID='t', T=    6.768635926849 / 
&RAMP ID='t', T=    6.777724240449 / 
&RAMP ID='t', T=    6.786812554049 / 
&RAMP ID='t', T=    6.795900867649 / 
&RAMP ID='t', T=    6.804989181249 / 
&RAMP ID='t', T=    6.814077494849 / 
&RAMP ID='t', T=    6.829895760616 / 
&RAMP ID='t', T=    6.845714026382 / 
&RAMP ID='t', T=    6.861532292149 / 
&RAMP ID='t', T=    6.877350557915 / 
&RAMP ID='t', T=    6.893168823682 / 
&RAMP ID='t', T=    6.908987089448 / 
&RAMP ID='t', T=    6.924805355214 / 
&RAMP ID='t', T=    6.940623620981 / 
&RAMP ID='t', T=    6.956441886747 / 
&RAMP ID='t', T=    6.972260152514 / 
&RAMP ID='t', T=    6.983694168025 / 
&RAMP ID='t', T=    6.995128183536 / 
&RAMP ID='t', T=    7.006562199047 / 
&RAMP ID='t', T=    7.017996214558 / 
&RAMP ID='t', T=    7.029430230069 / 
&RAMP ID='t', T=    7.040864245580 / 
&RAMP ID='t', T=    7.052298261091 / 
&RAMP ID='t', T=    7.063732276602 / 
&RAMP ID='t', T=    7.075166292113 / 
&RAMP ID='t', T=    7.086600307624 / 
&RAMP ID='t', T=    7.098034323135 / 
&RAMP ID='t', T=    7.109468338646 / 
&RAMP ID='t', T=    7.120902354158 / 
&RAMP ID='t', T=    7.132336369669 / 
&RAMP ID='t', T=    7.143770385180 / 
&RAMP ID='t', T=    7.155204400691 / 
&RAMP ID='t', T=    7.163590123456 / 
&RAMP ID='t', T=    7.171975846222 / 
&RAMP ID='t', T=    7.180361568987 / 
&RAMP ID='t', T=    7.188747291752 / 
&RAMP ID='t', T=    7.197133014518 / 
&RAMP ID='t', T=    7.205518737283 / 
&RAMP ID='t', T=    7.213904460049 / 
&RAMP ID='t', T=    7.222290182814 / 
&RAMP ID='t', T=    7.230675905580 / 
&RAMP ID='t', T=    7.239061628345 / 
&RAMP ID='t', T=    7.245272351729 / 
&RAMP ID='t', T=    7.251483075113 / 
&RAMP ID='t', T=    7.257693798497 / 
&RAMP ID='t', T=    7.263904521880 / 
&RAMP ID='t', T=    7.270115245264 / 
&RAMP ID='t', T=    7.276325968648 / 
&RAMP ID='t', T=    7.282536692032 / 
&RAMP ID='t', T=    7.288747415416 / 
&RAMP ID='t', T=    7.294958138799 / 
&RAMP ID='t', T=    7.301168862183 / 
&RAMP ID='t', T=    7.305514650148 / 
&RAMP ID='t', T=    7.309860438114 / 
&RAMP ID='t', T=    7.314206226079 / 
&RAMP ID='t', T=    7.318552014044 / 
&RAMP ID='t', T=    7.322897802010 / 
&RAMP ID='t', T=    7.327243589975 / 
&RAMP ID='t', T=    7.331589377940 / 
&RAMP ID='t', T=    7.335935165905 / 
&RAMP ID='t', T=    7.340280953871 / 
&RAMP ID='t', T=    7.344626741836 / 
&RAMP ID='t', T=    7.348972529801 / 
&RAMP ID='t', T=    7.353318317767 / 
&RAMP ID='t', T=    7.357664105732 / 
&RAMP ID='t', T=    7.362009893697 / 
&RAMP ID='t', T=    7.366355681663 / 
&RAMP ID='t', T=    7.370701469628 / 
&RAMP ID='t', T=    7.375047257593 / 
&RAMP ID='t', T=    7.381841778685 / 
&RAMP ID='t', T=    7.388636299777 / 
&RAMP ID='t', T=    7.395430820870 / 
&RAMP ID='t', T=    7.402225341962 / 
&RAMP ID='t', T=    7.409019863054 / 
&RAMP ID='t', T=    7.415814384146 / 
&RAMP ID='t', T=    7.422608905238 / 
&RAMP ID='t', T=    7.433803875205 / 
&RAMP ID='t', T=    7.444998845171 / 
&RAMP ID='t', T=    7.456193815137 / 
&RAMP ID='t', T=    7.467388785104 / 
&RAMP ID='t', T=    7.478583755070 / 
&RAMP ID='t', T=    7.489778725036 / 
&RAMP ID='t', T=    7.500973695003 / 
&RAMP ID='t', T=    7.512168664969 / 
&RAMP ID='t', T=    7.523363634935 / 
&RAMP ID='t', T=    7.534558604902 / 
&RAMP ID='t', T=    7.545753574868 / 
&RAMP ID='t', T=    7.556948544834 / 
&RAMP ID='t', T=    7.564790405698 / 
&RAMP ID='t', T=    7.570356046748 / 
&RAMP ID='t', T=    7.575921687799 / 
&RAMP ID='t', T=    7.581487328849 / 
&RAMP ID='t', T=    7.587052969899 / 
&RAMP ID='t', T=    7.592618610949 / 
&RAMP ID='t', T=    7.596631043977 / 
&RAMP ID='t', T=    7.599592288059 / 
&RAMP ID='t', T=    7.602553532141 / 
&RAMP ID='t', T=    7.605514776224 / 
&RAMP ID='t', T=    7.608476020306 / 
&RAMP ID='t', T=    7.611437264388 / 
&RAMP ID='t', T=    7.614398508470 / 
&RAMP ID='t', T=    7.617359752553 / 
&RAMP ID='t', T=    7.620320996635 / 
&RAMP ID='t', T=    7.623282240717 / 
&RAMP ID='t', T=    7.626243484800 / 
&RAMP ID='t', T=    7.629204728882 / 
&RAMP ID='t', T=    7.632165972964 / 
&RAMP ID='t', T=    7.635127217046 / 
&RAMP ID='t', T=    7.638088461129 / 
&RAMP ID='t', T=    7.641049705211 / 
&RAMP ID='t', T=    7.644010949293 / 
&RAMP ID='t', T=    7.646972193376 / 
&RAMP ID='t', T=    7.649933437458 / 
&RAMP ID='t', T=    7.651946183212 / 
&RAMP ID='t', T=    7.653384833923 / 
&RAMP ID='t', T=    7.654823484634 / 
&RAMP ID='t', T=    7.656262135345 / 
&RAMP ID='t', T=    7.657700786055 / 
&RAMP ID='t', T=    7.659139436766 / 
&RAMP ID='t', T=    7.660578087477 / 
&RAMP ID='t', T=    7.662016738188 / 
&RAMP ID='t', T=    7.663455388899 / 
&RAMP ID='t', T=    7.664894039610 / 
&RAMP ID='t', T=    7.666332690321 / 
&RAMP ID='t', T=    7.667771341032 / 
&RAMP ID='t', T=    7.669209991743 / 
&RAMP ID='t', T=    7.670648642454 / 
&RAMP ID='t', T=    7.672999672032 / 
&RAMP ID='t', T=    7.675350701610 / 
&RAMP ID='t', T=    7.677701731188 / 
&RAMP ID='t', T=    7.680052760766 / 
&RAMP ID='t', T=    7.684270557295 / 
&RAMP ID='t', T=    7.688488353824 / 
&RAMP ID='t', T=    7.692706150353 / 
&RAMP ID='t', T=    7.696923946882 / 
&RAMP ID='t', T=    7.701141743411 / 
&RAMP ID='t', T=    7.705359539940 / 
&RAMP ID='t', T=    7.709577336469 / 
&RAMP ID='t', T=    7.716383426122 / 
&RAMP ID='t', T=    7.723189515775 / 
&RAMP ID='t', T=    7.729995605428 / 
&RAMP ID='t', T=    7.736801695081 / 
&RAMP ID='t', T=    7.743607784734 / 
&RAMP ID='t', T=    7.753927210384 / 
&RAMP ID='t', T=    7.764246636035 / 
&RAMP ID='t', T=    7.774566061685 / 
&RAMP ID='t', T=    7.784885487336 / 
&RAMP ID='t', T=    7.795204912986 / 
&RAMP ID='t', T=    7.805524338636 / 
&RAMP ID='t', T=    7.815843764287 / 
&RAMP ID='t', T=    7.826163189937 / 
&RAMP ID='t', T=    7.833648340284 / 
&RAMP ID='t', T=    7.839197938208 / 
&RAMP ID='t', T=    7.844747536132 / 
&RAMP ID='t', T=    7.850297134056 / 
&RAMP ID='t', T=    7.855846731980 / 
&RAMP ID='t', T=    7.861396329903 / 
&RAMP ID='t', T=    7.866945927827 / 
&RAMP ID='t', T=    7.872495525751 / 
&RAMP ID='t', T=    7.878045123675 / 
&RAMP ID='t', T=    7.882100801357 / 
&RAMP ID='t', T=    7.886156479039 / 
&RAMP ID='t', T=    7.890212156721 / 
&RAMP ID='t', T=    7.894267834404 / 
&RAMP ID='t', T=    7.897060612128 / 
&RAMP ID='t', T=    7.899010158307 / 
&RAMP ID='t', T=    7.900959704487 / 
&RAMP ID='t', T=    7.902909250667 / 
&RAMP ID='t', T=    7.904858796847 / 
&RAMP ID='t', T=    7.906808343026 / 
&RAMP ID='t', T=    7.908757889206 / 
&RAMP ID='t', T=    7.910707435386 / 
&RAMP ID='t', T=    7.912656981566 / 
&RAMP ID='t', T=    7.914606527745 / 
&RAMP ID='t', T=    7.916556073925 / 
&RAMP ID='t', T=    7.918505620105 / 
&RAMP ID='t', T=    7.920455166285 / 
&RAMP ID='t', T=    7.922404712464 / 
&RAMP ID='t', T=    7.924354258644 / 
&RAMP ID='t', T=    7.927425313471 / 
&RAMP ID='t', T=    7.930496368298 / 
&RAMP ID='t', T=    7.933567423125 / 
&RAMP ID='t', T=    7.936638477952 / 
&RAMP ID='t', T=    7.942198927611 / 
&RAMP ID='t', T=    7.947759377270 / 
&RAMP ID='t', T=    7.953319826928 / 
&RAMP ID='t', T=    7.958880276587 / 
&RAMP ID='t', T=    7.964440726245 / 
&RAMP ID='t', T=    7.970001175904 / 
&RAMP ID='t', T=    7.975561625562 / 
&RAMP ID='t', T=    7.979627541794 / 
&RAMP ID='t', T=    7.983693458025 / 
&RAMP ID='t', T=    7.987759374257 / 
&RAMP ID='t', T=    7.991825290488 / 
&RAMP ID='t', T=    7.995891206720 / 
&RAMP ID='t', T=    7.999957122951 / 
&RAMP ID='t', T=    8.004023039183 / 
&RAMP ID='t', T=    8.008088955414 / 
&RAMP ID='t', T=    8.012154871646 / 
&RAMP ID='t', T=    8.016220787877 / 
&RAMP ID='t', T=    8.020286704109 / 
&RAMP ID='t', T=    8.024352620340 / 
&RAMP ID='t', T=    8.027358152912 / 
&RAMP ID='t', T=    8.029417966252 / 
&RAMP ID='t', T=    8.031477779592 / 
&RAMP ID='t', T=    8.033537592932 / 
&RAMP ID='t', T=    8.035597406273 / 
&RAMP ID='t', T=    8.037657219613 / 
&RAMP ID='t', T=    8.039717032953 / 
&RAMP ID='t', T=    8.041776846293 / 
&RAMP ID='t', T=    8.043836659633 / 
&RAMP ID='t', T=    8.045896472973 / 
&RAMP ID='t', T=    8.047956286314 / 
&RAMP ID='t', T=    8.049451072371 / 
&RAMP ID='t', T=    8.050945858429 / 
&RAMP ID='t', T=    8.052440644487 / 
&RAMP ID='t', T=    8.053548077624 / 
&RAMP ID='t', T=    8.054314442528 / 
&RAMP ID='t', T=    8.055080807432 / 
&RAMP ID='t', T=    8.055847172336 / 
&RAMP ID='t', T=    8.056613537240 / 
&RAMP ID='t', T=    8.057379902144 / 
&RAMP ID='t', T=    8.058146267048 / 
&RAMP ID='t', T=    8.058912631952 / 
&RAMP ID='t', T=    8.059678996856 / 
&RAMP ID='t', T=    8.060445361760 / 
&RAMP ID='t', T=    8.061211726664 / 
&RAMP ID='t', T=    8.061978091568 / 
&RAMP ID='t', T=    8.062744456472 / 
&RAMP ID='t', T=    8.063510821376 / 
&RAMP ID='t', T=    8.064780776032 / 
&RAMP ID='t', T=    8.066050730688 / 
&RAMP ID='t', T=    8.067320685344 / 
&RAMP ID='t', T=    8.068590640000 / 
&RAMP ID='t', T=    8.070686282032 / 
&RAMP ID='t', T=    8.072781924064 / 
&RAMP ID='t', T=    8.074877566096 / 
&RAMP ID='t', T=    8.076973208128 / 
&RAMP ID='t', T=    8.079068850159 / 
&RAMP ID='t', T=    8.082436663398 / 
&RAMP ID='t', T=    8.085804476636 / 
&RAMP ID='t', T=    8.089172289875 / 
&RAMP ID='t', T=    8.092540103113 / 
&RAMP ID='t', T=    8.095907916351 / 
&RAMP ID='t', T=    8.099275729590 / 
&RAMP ID='t', T=    8.102643542828 / 
&RAMP ID='t', T=    8.106011356066 / 
&RAMP ID='t', T=    8.109379169305 / 
&RAMP ID='t', T=    8.112746982543 / 
&RAMP ID='t', T=    8.116114795781 / 
&RAMP ID='t', T=    8.119482609020 / 
&RAMP ID='t', T=    8.122850422258 / 
&RAMP ID='t', T=    8.126218235496 / 
&RAMP ID='t', T=    8.129586048735 / 
&RAMP ID='t', T=    8.132953861973 / 
&RAMP ID='t', T=    8.136321675211 / 
&RAMP ID='t', T=    8.138611260969 / 
&RAMP ID='t', T=    8.140216050993 / 
&RAMP ID='t', T=    8.141820841016 / 
&RAMP ID='t', T=    8.143425631040 / 
&RAMP ID='t', T=    8.145030421063 / 
&RAMP ID='t', T=    8.146635211087 / 
&RAMP ID='t', T=    8.148240001111 / 
&RAMP ID='t', T=    8.149844791134 / 
&RAMP ID='t', T=    8.151449581158 / 
&RAMP ID='t', T=    8.153054371181 / 
&RAMP ID='t', T=    8.154659161205 / 
&RAMP ID='t', T=    8.156263951228 / 
&RAMP ID='t', T=    8.157295041219 / 
&RAMP ID='t', T=    8.157988964263 / 
&RAMP ID='t', T=    8.158682887307 / 
&RAMP ID='t', T=    8.159376810351 / 
&RAMP ID='t', T=    8.160070733395 / 
&RAMP ID='t', T=    8.160764656439 / 
&RAMP ID='t', T=    8.161458579483 / 
&RAMP ID='t', T=    8.162152502527 / 
&RAMP ID='t', T=    8.162846425571 / 
&RAMP ID='t', T=    8.163540348615 / 
&RAMP ID='t', T=    8.164234271659 / 
&RAMP ID='t', T=    8.164928194703 / 
&RAMP ID='t', T=    8.165622117748 / 
&RAMP ID='t', T=    8.166316040792 / 
&RAMP ID='t', T=    8.167522842091 / 
&RAMP ID='t', T=    8.168729643390 / 
&RAMP ID='t', T=    8.169936444690 / 
&RAMP ID='t', T=    8.171143245989 / 
&RAMP ID='t', T=    8.172350047289 / 
&RAMP ID='t', T=    8.173556848588 / 
&RAMP ID='t', T=    8.175403875132 / 
&RAMP ID='t', T=    8.177250901676 / 
&RAMP ID='t', T=    8.179097928220 / 
&RAMP ID='t', T=    8.180944954764 / 
&RAMP ID='t', T=    8.182791981308 / 
&RAMP ID='t', T=    8.184639007852 / 
&RAMP ID='t', T=    8.186486034396 / 
&RAMP ID='t', T=    8.188333060940 / 
&RAMP ID='t', T=    8.190180087484 / 
&RAMP ID='t', T=    8.192027114028 / 
&RAMP ID='t', T=    8.193874140572 / 
&RAMP ID='t', T=    8.195721167116 / 
&RAMP ID='t', T=    8.197568193660 / 
&RAMP ID='t', T=    8.199415220204 / 
&RAMP ID='t', T=    8.201262246748 / 
&RAMP ID='t', T=    8.203109273292 / 
&RAMP ID='t', T=    8.204956299836 / 
&RAMP ID='t', T=    8.206803326380 / 
&RAMP ID='t', T=    8.208650352925 / 
&RAMP ID='t', T=    8.210497379469 / 
&RAMP ID='t', T=    8.212344406013 / 
&RAMP ID='t', T=    8.214191432557 / 
&RAMP ID='t', T=    8.216038459101 / 
&RAMP ID='t', T=    8.217885485645 / 
&RAMP ID='t', T=    8.219732512189 / 
&RAMP ID='t', T=    8.221579538733 / 
&RAMP ID='t', T=    8.223426565277 / 
&RAMP ID='t', T=    8.225273591821 / 
&RAMP ID='t', T=    8.227120618365 / 
&RAMP ID='t', T=    8.228395720919 / 
&RAMP ID='t', T=    8.229670823473 / 
&RAMP ID='t', T=    8.230945926027 / 
&RAMP ID='t', T=    8.232221028581 / 
&RAMP ID='t', T=    8.233496131136 / 
&RAMP ID='t', T=    8.234771233690 / 
&RAMP ID='t', T=    8.236046336244 / 
&RAMP ID='t', T=    8.237321438798 / 
&RAMP ID='t', T=    8.238596541352 / 
&RAMP ID='t', T=    8.239871643907 / 
&RAMP ID='t', T=    8.241146746461 / 
&RAMP ID='t', T=    8.241993180407 / 
&RAMP ID='t', T=    8.242839614354 / 
&RAMP ID='t', T=    8.243686048300 / 
&RAMP ID='t', T=    8.244532482247 / 
&RAMP ID='t', T=    8.245378916193 / 
&RAMP ID='t', T=    8.246225350140 / 
&RAMP ID='t', T=    8.247071784086 / 
&RAMP ID='t', T=    8.247918218033 / 
&RAMP ID='t', T=    8.248764651979 / 
&RAMP ID='t', T=    8.249611085926 / 
&RAMP ID='t', T=    8.250457519873 / 
&RAMP ID='t', T=    8.251858244903 / 
&RAMP ID='t', T=    8.253258969934 / 
&RAMP ID='t', T=    8.254659694965 / 
&RAMP ID='t', T=    8.256060419996 / 
&RAMP ID='t', T=    8.257461145027 / 
&RAMP ID='t', T=    8.258861870058 / 
&RAMP ID='t', T=    8.260262595089 / 
&RAMP ID='t', T=    8.261663320120 / 
&RAMP ID='t', T=    8.263064045151 / 
&RAMP ID='t', T=    8.264464770182 / 
&RAMP ID='t', T=    8.265865495213 / 
&RAMP ID='t', T=    8.267266220244 / 
&RAMP ID='t', T=    8.268666945275 / 
&RAMP ID='t', T=    8.270067670306 / 
&RAMP ID='t', T=    8.271468395337 / 
&RAMP ID='t', T=    8.272869120368 / 
&RAMP ID='t', T=    8.274269845399 / 
&RAMP ID='t', T=    8.275670570430 / 
&RAMP ID='t', T=    8.277071295461 / 
&RAMP ID='t', T=    8.278472020492 / 
&RAMP ID='t', T=    8.279442898078 / 