&HEAD CHID='ignition_delay_T1200K_Phi1p0', TITLE='ignition_delay T=1200K Phi=1.0' /

&MISC GVEC(3)=0.0, NOISE=F, STRATIFICATION=F, SIMULATION_MODE='DNS' /

&RADI RADIATION=F/
&SURF ID='DEF',DEFAULT=T,ADIABATIC=T/

&COMB FINITE_RATE_MIN_TEMP=300,ZZ_MIN_GLOBAL=1E-15,INITIAL_UNMIXED_FRACTION=0.0,ODE_SOLVER='CVODE',ODE_MIN_ATOL=1E-15,ODE_REL_ERROR=1E-9/
&TIME T_END=10, RAMP_TIME='t' /
&DUMP DT_DEVC=1e-20/

&CATF OTHER_FILES='../../Utilities/Input_Libraries/Chemical_Mechanisms/FDS/grimech30.fds' /

&MESH IJK=5,1,5, XB=0.0,1.0,0.0,0.2,0.0,1.0 /
&OBST XB=0.0,1.0,0.0,0.2,0.0,1.0/
&HOLE XB=0.4,0.6,-1.0,1.0,0.4,0.6/
&INIT XB=0.4,0.6,-1.0,1.0,0.4,0.6, MASS_FRACTION(1)=0.22014124, SPEC_ID(1)='O2',MASS_FRACTION(2)=0.05518667,SPEC_ID(2)='CH4',  TEMPERATURE=926.85 /
&DEVC XYZ=0.5,0.0,0.5, QUANTITY='MASS FRACTION', SPEC_ID='OH',  ID='OH' /
&DEVC XYZ=0.5,0.0,0.5, QUANTITY='TEMPERATURE', ID='TMP'/

&RAMP ID='t', T=    0.000000000000310 / 
&RAMP ID='t', T=    0.000000003097233 / 
&RAMP ID='t', T=    0.000000034066461 / 
&RAMP ID='t', T=    0.000000065035690 / 
&RAMP ID='t', T=    0.000000117495058 / 
&RAMP ID='t', T=    0.000000201736133 / 
&RAMP ID='t', T=    0.000000285977207 / 
&RAMP ID='t', T=    0.000000425060549 / 
&RAMP ID='t', T=    0.000000564143890 / 
&RAMP ID='t', T=    0.000000703227232 / 
&RAMP ID='t', T=    0.000000842310574 / 
&RAMP ID='t', T=    0.000000981393915 / 
&RAMP ID='t', T=    0.000001120477257 / 
&RAMP ID='t', T=    0.000001346228847 / 
&RAMP ID='t', T=    0.000001571980437 / 
&RAMP ID='t', T=    0.000001797732027 / 
&RAMP ID='t', T=    0.000002172381536 / 
&RAMP ID='t', T=    0.000002547031045 / 
&RAMP ID='t', T=    0.000002921680554 / 
&RAMP ID='t', T=    0.000003296330063 / 
&RAMP ID='t', T=    0.000003670979572 / 
&RAMP ID='t', T=    0.000004045629082 / 
&RAMP ID='t', T=    0.000004420278591 / 
&RAMP ID='t', T=    0.000004794928100 / 
&RAMP ID='t', T=    0.000005169577609 / 
&RAMP ID='t', T=    0.000005544227118 / 
&RAMP ID='t', T=    0.000006195376258 / 
&RAMP ID='t', T=    0.000006846525398 / 
&RAMP ID='t', T=    0.000007497674538 / 
&RAMP ID='t', T=    0.000008148823678 / 
&RAMP ID='t', T=    0.000008799972818 / 
&RAMP ID='t', T=    0.000009451121959 / 
&RAMP ID='t', T=    0.000010516572180 / 
&RAMP ID='t', T=    0.000012609755028 / 
&RAMP ID='t', T=    0.000014702937876 / 
&RAMP ID='t', T=    0.000016796120724 / 
&RAMP ID='t', T=    0.000018889303571 / 
&RAMP ID='t', T=    0.000020982486419 / 
&RAMP ID='t', T=    0.000023075669267 / 
&RAMP ID='t', T=    0.000025168852115 / 
&RAMP ID='t', T=    0.000029031722544 / 
&RAMP ID='t', T=    0.000032894592974 / 
&RAMP ID='t', T=    0.000036757463404 / 
&RAMP ID='t', T=    0.000040620333833 / 
&RAMP ID='t', T=    0.000044483204263 / 
&RAMP ID='t', T=    0.000048346074692 / 
&RAMP ID='t', T=    0.000054465540722 / 
&RAMP ID='t', T=    0.000060585006752 / 
&RAMP ID='t', T=    0.000066704472782 / 
&RAMP ID='t', T=    0.000072823938811 / 
&RAMP ID='t', T=    0.000078943404841 / 
&RAMP ID='t', T=    0.000085062870871 / 
&RAMP ID='t', T=    0.000091182336900 / 
&RAMP ID='t', T=    0.000101565040864 / 
&RAMP ID='t', T=    0.000111947744828 / 
&RAMP ID='t', T=    0.000122330448793 / 
&RAMP ID='t', T=    0.000132713152757 / 
&RAMP ID='t', T=    0.000149545994633 / 
&RAMP ID='t', T=    0.000166378836510 / 
&RAMP ID='t', T=    0.000183211678386 / 
&RAMP ID='t', T=    0.000200044520263 / 
&RAMP ID='t', T=    0.000216877362139 / 
&RAMP ID='t', T=    0.000233710204016 / 
&RAMP ID='t', T=    0.000250543045892 / 
&RAMP ID='t', T=    0.000267375887769 / 
&RAMP ID='t', T=    0.000284208729646 / 
&RAMP ID='t', T=    0.000301041571522 / 
&RAMP ID='t', T=    0.000317874413399 / 
&RAMP ID='t', T=    0.000334707255275 / 
&RAMP ID='t', T=    0.000351540097152 / 
&RAMP ID='t', T=    0.000368372939028 / 
&RAMP ID='t', T=    0.000385205780905 / 
&RAMP ID='t', T=    0.000402038622781 / 
&RAMP ID='t', T=    0.000418871464658 / 
&RAMP ID='t', T=    0.000435704306534 / 
&RAMP ID='t', T=    0.000452537148411 / 
&RAMP ID='t', T=    0.000469369990287 / 
&RAMP ID='t', T=    0.000486202832164 / 
&RAMP ID='t', T=    0.000503035674041 / 
&RAMP ID='t', T=    0.000519868515917 / 
&RAMP ID='t', T=    0.000545475142152 / 
&RAMP ID='t', T=    0.000571081768387 / 
&RAMP ID='t', T=    0.000596688394622 / 
&RAMP ID='t', T=    0.000622295020857 / 
&RAMP ID='t', T=    0.000647901647092 / 
&RAMP ID='t', T=    0.000673508273327 / 
&RAMP ID='t', T=    0.000699114899562 / 
&RAMP ID='t', T=    0.000724721525797 / 
&RAMP ID='t', T=    0.000750328152032 / 
&RAMP ID='t', T=    0.000775934778268 / 
&RAMP ID='t', T=    0.000801541404503 / 
&RAMP ID='t', T=    0.000827148030738 / 
&RAMP ID='t', T=    0.000852754656973 / 
&RAMP ID='t', T=    0.000878361283208 / 
&RAMP ID='t', T=    0.000903967909443 / 
&RAMP ID='t', T=    0.000929574535678 / 
&RAMP ID='t', T=    0.000955181161913 / 
&RAMP ID='t', T=    0.000980787788148 / 
&RAMP ID='t', T=    0.001006394414383 / 
&RAMP ID='t', T=    0.001032001040618 / 
&RAMP ID='t', T=    0.001057607666853 / 
&RAMP ID='t', T=    0.001083214293088 / 
&RAMP ID='t', T=    0.001108820919323 / 
&RAMP ID='t', T=    0.001134427545558 / 
&RAMP ID='t', T=    0.001160034171793 / 
&RAMP ID='t', T=    0.001185640798028 / 
&RAMP ID='t', T=    0.001211247424263 / 
&RAMP ID='t', T=    0.001236854050498 / 
&RAMP ID='t', T=    0.001262460676733 / 
&RAMP ID='t', T=    0.001288067302969 / 
&RAMP ID='t', T=    0.001313673929204 / 
&RAMP ID='t', T=    0.001339280555439 / 
&RAMP ID='t', T=    0.001364887181674 / 
&RAMP ID='t', T=    0.001390493807909 / 
&RAMP ID='t', T=    0.001416100434144 / 
&RAMP ID='t', T=    0.001441707060379 / 
&RAMP ID='t', T=    0.001467313686614 / 
&RAMP ID='t', T=    0.001492920312849 / 
&RAMP ID='t', T=    0.001518526939084 / 
&RAMP ID='t', T=    0.001544133565319 / 
&RAMP ID='t', T=    0.001569740191554 / 
&RAMP ID='t', T=    0.001595346817789 / 
&RAMP ID='t', T=    0.001620953444024 / 
&RAMP ID='t', T=    0.001646560070259 / 
&RAMP ID='t', T=    0.001672166696494 / 
&RAMP ID='t', T=    0.001697773322729 / 
&RAMP ID='t', T=    0.001723379948964 / 
&RAMP ID='t', T=    0.001748986575199 / 
&RAMP ID='t', T=    0.001774593201434 / 
&RAMP ID='t', T=    0.001800199827670 / 
&RAMP ID='t', T=    0.001825806453905 / 
&RAMP ID='t', T=    0.001851413080140 / 
&RAMP ID='t', T=    0.001877019706375 / 
&RAMP ID='t', T=    0.001902626332610 / 
&RAMP ID='t', T=    0.001928232958845 / 
&RAMP ID='t', T=    0.001953839585080 / 
&RAMP ID='t', T=    0.001979446211315 / 
&RAMP ID='t', T=    0.002005052837550 / 
&RAMP ID='t', T=    0.002030659463785 / 
&RAMP ID='t', T=    0.002056266090020 / 
&RAMP ID='t', T=    0.002081872716255 / 
&RAMP ID='t', T=    0.002107479342490 / 
&RAMP ID='t', T=    0.002133085968725 / 
&RAMP ID='t', T=    0.002158692594960 / 
&RAMP ID='t', T=    0.002184299221195 / 
&RAMP ID='t', T=    0.002209905847430 / 
&RAMP ID='t', T=    0.002235512473665 / 
&RAMP ID='t', T=    0.002261119099900 / 
&RAMP ID='t', T=    0.002286725726135 / 
&RAMP ID='t', T=    0.002325138559754 / 
&RAMP ID='t', T=    0.002363551393373 / 
&RAMP ID='t', T=    0.002401964226991 / 
&RAMP ID='t', T=    0.002440377060610 / 
&RAMP ID='t', T=    0.002478789894229 / 
&RAMP ID='t', T=    0.002517202727847 / 
&RAMP ID='t', T=    0.002555615561466 / 
&RAMP ID='t', T=    0.002594028395085 / 
&RAMP ID='t', T=    0.002632441228703 / 
&RAMP ID='t', T=    0.002670854062322 / 
&RAMP ID='t', T=    0.002709266895940 / 
&RAMP ID='t', T=    0.002747679729559 / 
&RAMP ID='t', T=    0.002786092563178 / 
&RAMP ID='t', T=    0.002824505396796 / 
&RAMP ID='t', T=    0.002862918230415 / 
&RAMP ID='t', T=    0.002901331064034 / 
&RAMP ID='t', T=    0.002939743897652 / 
&RAMP ID='t', T=    0.002978156731271 / 
&RAMP ID='t', T=    0.003016569564890 / 
&RAMP ID='t', T=    0.003054982398508 / 
&RAMP ID='t', T=    0.003093395232127 / 
&RAMP ID='t', T=    0.003131808065746 / 
&RAMP ID='t', T=    0.003170220899364 / 
&RAMP ID='t', T=    0.003208633732983 / 
&RAMP ID='t', T=    0.003247046566601 / 
&RAMP ID='t', T=    0.003285459400220 / 
&RAMP ID='t', T=    0.003323872233839 / 
&RAMP ID='t', T=    0.003362285067457 / 
&RAMP ID='t', T=    0.003400697901076 / 
&RAMP ID='t', T=    0.003439110734695 / 
&RAMP ID='t', T=    0.003477523568313 / 
&RAMP ID='t', T=    0.003515936401932 / 
&RAMP ID='t', T=    0.003554349235551 / 
&RAMP ID='t', T=    0.003592762069169 / 
&RAMP ID='t', T=    0.003631174902788 / 
&RAMP ID='t', T=    0.003669587736407 / 
&RAMP ID='t', T=    0.003708000570025 / 
&RAMP ID='t', T=    0.003766425519511 / 
&RAMP ID='t', T=    0.003824850468997 / 
&RAMP ID='t', T=    0.003883275418483 / 
&RAMP ID='t', T=    0.003941700367969 / 
&RAMP ID='t', T=    0.004000125317455 / 
&RAMP ID='t', T=    0.004058550266941 / 
&RAMP ID='t', T=    0.004116975216427 / 
&RAMP ID='t', T=    0.004175400165913 / 
&RAMP ID='t', T=    0.004233825115399 / 
&RAMP ID='t', T=    0.004292250064885 / 
&RAMP ID='t', T=    0.004350675014371 / 
&RAMP ID='t', T=    0.004439494825578 / 
&RAMP ID='t', T=    0.004528314636786 / 
&RAMP ID='t', T=    0.004617134447993 / 
&RAMP ID='t', T=    0.004705954259201 / 
&RAMP ID='t', T=    0.004794774070408 / 
&RAMP ID='t', T=    0.004883593881616 / 
&RAMP ID='t', T=    0.004972413692823 / 
&RAMP ID='t', T=    0.005061233504031 / 
&RAMP ID='t', T=    0.005150053315238 / 
&RAMP ID='t', T=    0.005238873126446 / 
&RAMP ID='t', T=    0.005327692937653 / 
&RAMP ID='t', T=    0.005416512748861 / 
&RAMP ID='t', T=    0.005505332560068 / 
&RAMP ID='t', T=    0.005594152371276 / 
&RAMP ID='t', T=    0.005682972182483 / 
&RAMP ID='t', T=    0.005771791993691 / 
&RAMP ID='t', T=    0.005860611804898 / 
&RAMP ID='t', T=    0.005949431616106 / 
&RAMP ID='t', T=    0.006038251427313 / 
&RAMP ID='t', T=    0.006127071238521 / 
&RAMP ID='t', T=    0.006215891049729 / 
&RAMP ID='t', T=    0.006304710860936 / 
&RAMP ID='t', T=    0.006393530672144 / 
&RAMP ID='t', T=    0.006482350483351 / 
&RAMP ID='t', T=    0.006571170294559 / 
&RAMP ID='t', T=    0.006659990105766 / 
&RAMP ID='t', T=    0.006748809916974 / 
&RAMP ID='t', T=    0.006837629728181 / 
&RAMP ID='t', T=    0.006926449539389 / 
&RAMP ID='t', T=    0.007015269350596 / 
&RAMP ID='t', T=    0.007104089161804 / 
&RAMP ID='t', T=    0.007192908973011 / 
&RAMP ID='t', T=    0.007326595610777 / 
&RAMP ID='t', T=    0.007460282248544 / 
&RAMP ID='t', T=    0.007593968886310 / 
&RAMP ID='t', T=    0.007727655524076 / 
&RAMP ID='t', T=    0.007861342161842 / 
&RAMP ID='t', T=    0.007995028799608 / 
&RAMP ID='t', T=    0.008128715437375 / 
&RAMP ID='t', T=    0.008262402075141 / 
&RAMP ID='t', T=    0.008396088712907 / 
&RAMP ID='t', T=    0.008529775350673 / 
&RAMP ID='t', T=    0.008663461988440 / 
&RAMP ID='t', T=    0.008797148626206 / 
&RAMP ID='t', T=    0.008930835263972 / 
&RAMP ID='t', T=    0.009137019286831 / 
&RAMP ID='t', T=    0.009343203309690 / 
&RAMP ID='t', T=    0.009549387332549 / 
&RAMP ID='t', T=    0.009755571355408 / 
&RAMP ID='t', T=    0.009961755378267 / 
&RAMP ID='t', T=    0.010167939401126 / 
&RAMP ID='t', T=    0.010478211573985 / 
&RAMP ID='t', T=    0.010788483746843 / 
&RAMP ID='t', T=    0.011098755919702 / 
&RAMP ID='t', T=    0.011409028092561 / 
&RAMP ID='t', T=    0.011719300265420 / 
&RAMP ID='t', T=    0.012029572438279 / 
&RAMP ID='t', T=    0.012339844611137 / 
&RAMP ID='t', T=    0.012650116783996 / 
&RAMP ID='t', T=    0.012960388956855 / 
&RAMP ID='t', T=    0.013270661129714 / 
&RAMP ID='t', T=    0.013580933302573 / 
&RAMP ID='t', T=    0.013891205475431 / 
&RAMP ID='t', T=    0.014201477648290 / 
&RAMP ID='t', T=    0.014511749821149 / 
&RAMP ID='t', T=    0.014822021994008 / 
&RAMP ID='t', T=    0.015132294166867 / 
&RAMP ID='t', T=    0.015442566339725 / 
&RAMP ID='t', T=    0.015752838512584 / 
&RAMP ID='t', T=    0.016063110685443 / 
&RAMP ID='t', T=    0.016373382858302 / 
&RAMP ID='t', T=    0.016683655031160 / 
&RAMP ID='t', T=    0.016993927204019 / 
&RAMP ID='t', T=    0.017304199376878 / 
&RAMP ID='t', T=    0.017614471549737 / 
&RAMP ID='t', T=    0.017924743722596 / 
&RAMP ID='t', T=    0.018235015895454 / 
&RAMP ID='t', T=    0.018545288068313 / 
&RAMP ID='t', T=    0.018855560241172 / 
&RAMP ID='t', T=    0.019165832414031 / 
&RAMP ID='t', T=    0.019476104586890 / 
&RAMP ID='t', T=    0.019786376759748 / 
&RAMP ID='t', T=    0.020096648932607 / 
&RAMP ID='t', T=    0.020406921105466 / 
&RAMP ID='t', T=    0.020717193278325 / 
&RAMP ID='t', T=    0.020937648730848 / 
&RAMP ID='t', T=    0.021158104183371 / 
&RAMP ID='t', T=    0.021378559635894 / 
&RAMP ID='t', T=    0.021599015088417 / 
&RAMP ID='t', T=    0.021819470540940 / 
&RAMP ID='t', T=    0.022039925993463 / 
&RAMP ID='t', T=    0.022260381445986 / 
&RAMP ID='t', T=    0.022422594729483 / 
&RAMP ID='t', T=    0.022584808012979 / 
&RAMP ID='t', T=    0.022747021296475 / 
&RAMP ID='t', T=    0.022909234579971 / 
&RAMP ID='t', T=    0.023071447863468 / 
&RAMP ID='t', T=    0.023233661146964 / 
&RAMP ID='t', T=    0.023395874430460 / 
&RAMP ID='t', T=    0.023558087713957 / 
&RAMP ID='t', T=    0.023720300997453 / 
&RAMP ID='t', T=    0.023882514280949 / 
&RAMP ID='t', T=    0.024044727564445 / 
&RAMP ID='t', T=    0.024206940847942 / 
&RAMP ID='t', T=    0.024369154131438 / 
&RAMP ID='t', T=    0.024531367414934 / 
&RAMP ID='t', T=    0.024693580698431 / 
&RAMP ID='t', T=    0.024855793981927 / 
&RAMP ID='t', T=    0.025018007265423 / 
&RAMP ID='t', T=    0.025180220548920 / 
&RAMP ID='t', T=    0.025342433832416 / 
&RAMP ID='t', T=    0.025460780404201 / 
&RAMP ID='t', T=    0.025579126975987 / 
&RAMP ID='t', T=    0.025697473547772 / 
&RAMP ID='t', T=    0.025815820119557 / 
&RAMP ID='t', T=    0.025934166691343 / 
&RAMP ID='t', T=    0.026052513263128 / 
&RAMP ID='t', T=    0.026170859834914 / 
&RAMP ID='t', T=    0.026289206406699 / 
&RAMP ID='t', T=    0.026407552978484 / 
&RAMP ID='t', T=    0.026525899550270 / 
&RAMP ID='t', T=    0.026644246122055 / 
&RAMP ID='t', T=    0.026762592693841 / 
&RAMP ID='t', T=    0.026949136226829 / 
&RAMP ID='t', T=    0.027135679759818 / 
&RAMP ID='t', T=    0.027322223292807 / 
&RAMP ID='t', T=    0.027508766825795 / 
&RAMP ID='t', T=    0.027695310358784 / 
&RAMP ID='t', T=    0.027881853891773 / 
&RAMP ID='t', T=    0.028068397424762 / 
&RAMP ID='t', T=    0.028254940957750 / 
&RAMP ID='t', T=    0.028441484490739 / 
&RAMP ID='t', T=    0.028628028023728 / 
&RAMP ID='t', T=    0.028814571556716 / 
&RAMP ID='t', T=    0.029001115089705 / 
&RAMP ID='t', T=    0.029187658622694 / 
&RAMP ID='t', T=    0.029374202155683 / 
&RAMP ID='t', T=    0.029560745688671 / 
&RAMP ID='t', T=    0.029747289221660 / 
&RAMP ID='t', T=    0.029933832754649 / 
&RAMP ID='t', T=    0.030120376287638 / 
&RAMP ID='t', T=    0.030306919820626 / 
&RAMP ID='t', T=    0.030493463353615 / 
&RAMP ID='t', T=    0.030680006886604 / 
&RAMP ID='t', T=    0.030866550419592 / 
&RAMP ID='t', T=    0.031053093952581 / 
&RAMP ID='t', T=    0.031239637485570 / 
&RAMP ID='t', T=    0.031426181018559 / 
&RAMP ID='t', T=    0.031612724551547 / 
&RAMP ID='t', T=    0.031799268084536 / 
&RAMP ID='t', T=    0.031933101955064 / 
&RAMP ID='t', T=    0.032066935825593 / 
&RAMP ID='t', T=    0.032200769696121 / 
&RAMP ID='t', T=    0.032334603566649 / 
&RAMP ID='t', T=    0.032468437437178 / 
&RAMP ID='t', T=    0.032602271307706 / 
&RAMP ID='t', T=    0.032736105178234 / 
&RAMP ID='t', T=    0.032835222447026 / 
&RAMP ID='t', T=    0.032934339715818 / 
&RAMP ID='t', T=    0.033033456984609 / 
&RAMP ID='t', T=    0.033132574253401 / 
&RAMP ID='t', T=    0.033231691522193 / 
&RAMP ID='t', T=    0.033330808790984 / 
&RAMP ID='t', T=    0.033429926059776 / 
&RAMP ID='t', T=    0.033529043328567 / 
&RAMP ID='t', T=    0.033628160597359 / 
&RAMP ID='t', T=    0.033727277866151 / 
&RAMP ID='t', T=    0.033826395134942 / 
&RAMP ID='t', T=    0.033925512403734 / 
&RAMP ID='t', T=    0.034024629672526 / 
&RAMP ID='t', T=    0.034098145737503 / 
&RAMP ID='t', T=    0.034171661802479 / 
&RAMP ID='t', T=    0.034245177867456 / 
&RAMP ID='t', T=    0.034318693932433 / 
&RAMP ID='t', T=    0.034392209997410 / 
&RAMP ID='t', T=    0.034465726062387 / 
&RAMP ID='t', T=    0.034539242127364 / 
&RAMP ID='t', T=    0.034612758192341 / 
&RAMP ID='t', T=    0.034686274257318 / 
&RAMP ID='t', T=    0.034759790322295 / 
&RAMP ID='t', T=    0.034833306387272 / 
&RAMP ID='t', T=    0.034906822452249 / 
&RAMP ID='t', T=    0.034980338517226 / 
&RAMP ID='t', T=    0.035053854582203 / 
&RAMP ID='t', T=    0.035127370647180 / 
&RAMP ID='t', T=    0.035200886712157 / 
&RAMP ID='t', T=    0.035274402777134 / 
&RAMP ID='t', T=    0.035388700639580 / 
&RAMP ID='t', T=    0.035502998502026 / 
&RAMP ID='t', T=    0.035617296364473 / 
&RAMP ID='t', T=    0.035731594226919 / 
&RAMP ID='t', T=    0.035845892089366 / 
&RAMP ID='t', T=    0.035960189951812 / 
&RAMP ID='t', T=    0.036074487814259 / 
&RAMP ID='t', T=    0.036188785676705 / 
&RAMP ID='t', T=    0.036303083539151 / 
&RAMP ID='t', T=    0.036417381401598 / 
&RAMP ID='t', T=    0.036531679264044 / 
&RAMP ID='t', T=    0.036645977126491 / 
&RAMP ID='t', T=    0.036760274988937 / 
&RAMP ID='t', T=    0.036874572851384 / 
&RAMP ID='t', T=    0.036988870713830 / 
&RAMP ID='t', T=    0.037103168576276 / 
&RAMP ID='t', T=    0.037217466438723 / 
&RAMP ID='t', T=    0.037298182470152 / 
&RAMP ID='t', T=    0.037357042068260 / 
&RAMP ID='t', T=    0.037415901666368 / 
&RAMP ID='t', T=    0.037474761264476 / 
&RAMP ID='t', T=    0.037533620862584 / 
&RAMP ID='t', T=    0.037592480460691 / 
&RAMP ID='t', T=    0.037635588953127 / 
&RAMP ID='t', T=    0.037678697445562 / 
&RAMP ID='t', T=    0.037721805937998 / 
&RAMP ID='t', T=    0.037764914430434 / 
&RAMP ID='t', T=    0.037808022922869 / 
&RAMP ID='t', T=    0.037851131415305 / 
&RAMP ID='t', T=    0.037883042112759 / 
&RAMP ID='t', T=    0.037914952810212 / 
&RAMP ID='t', T=    0.037946863507666 / 
&RAMP ID='t', T=    0.037978774205120 / 
&RAMP ID='t', T=    0.038010684902574 / 
&RAMP ID='t', T=    0.038042595600028 / 
&RAMP ID='t', T=    0.038074506297482 / 
&RAMP ID='t', T=    0.038106416994936 / 
&RAMP ID='t', T=    0.038129127684919 / 
&RAMP ID='t', T=    0.038145680395178 / 
&RAMP ID='t', T=    0.038162233105436 / 
&RAMP ID='t', T=    0.038178785815694 / 
&RAMP ID='t', T=    0.038195338525952 / 
&RAMP ID='t', T=    0.038211891236210 / 
&RAMP ID='t', T=    0.038228443946468 / 
&RAMP ID='t', T=    0.038244996656727 / 
&RAMP ID='t', T=    0.038270949581554 / 
&RAMP ID='t', T=    0.038296902506381 / 
&RAMP ID='t', T=    0.038322855431208 / 
&RAMP ID='t', T=    0.038348808356035 / 
&RAMP ID='t', T=    0.038389871699872 / 
&RAMP ID='t', T=    0.038430935043709 / 
&RAMP ID='t', T=    0.038471998387546 / 
&RAMP ID='t', T=    0.038513061731384 / 
&RAMP ID='t', T=    0.038554125075221 / 
&RAMP ID='t', T=    0.038595188419058 / 
&RAMP ID='t', T=    0.038636251762896 / 
&RAMP ID='t', T=    0.038699753396571 / 
&RAMP ID='t', T=    0.038763255030247 / 
&RAMP ID='t', T=    0.038826756663923 / 
&RAMP ID='t', T=    0.038890258297599 / 
&RAMP ID='t', T=    0.038953759931275 / 
&RAMP ID='t', T=    0.039017261564951 / 
&RAMP ID='t', T=    0.039080763198627 / 
&RAMP ID='t', T=    0.039144264832303 / 
&RAMP ID='t', T=    0.039207766465978 / 
&RAMP ID='t', T=    0.039271268099654 / 
&RAMP ID='t', T=    0.039334769733330 / 
&RAMP ID='t', T=    0.039398271367006 / 
&RAMP ID='t', T=    0.039461773000682 / 
&RAMP ID='t', T=    0.039525274634358 / 
&RAMP ID='t', T=    0.039588776268034 / 
&RAMP ID='t', T=    0.039635003130710 / 
&RAMP ID='t', T=    0.039668571036640 / 
&RAMP ID='t', T=    0.039702138942570 / 
&RAMP ID='t', T=    0.039735706848500 / 
&RAMP ID='t', T=    0.039769274754430 / 
&RAMP ID='t', T=    0.039802842660359 / 
&RAMP ID='t', T=    0.039827482433705 / 
&RAMP ID='t', T=    0.039845396593239 / 
&RAMP ID='t', T=    0.039863310752773 / 
&RAMP ID='t', T=    0.039881224912307 / 
&RAMP ID='t', T=    0.039899139071841 / 
&RAMP ID='t', T=    0.039917053231375 / 
&RAMP ID='t', T=    0.039930192033894 / 
&RAMP ID='t', T=    0.039939700031736 / 
&RAMP ID='t', T=    0.039949208029578 / 
&RAMP ID='t', T=    0.039958716027420 / 
&RAMP ID='t', T=    0.039968224025261 / 
&RAMP ID='t', T=    0.039977732023103 / 
&RAMP ID='t', T=    0.039987240020945 / 
&RAMP ID='t', T=    0.039993929963576 / 
&RAMP ID='t', T=    0.039998606574348 / 
&RAMP ID='t', T=    0.040002002172472 / 
&RAMP ID='t', T=    0.040005397770595 / 
&RAMP ID='t', T=    0.040008793368719 / 
&RAMP ID='t', T=    0.040012188966843 / 
&RAMP ID='t', T=    0.040015584564967 / 
&RAMP ID='t', T=    0.040018980163090 / 
&RAMP ID='t', T=    0.040022375761214 / 
&RAMP ID='t', T=    0.040025771359338 / 
&RAMP ID='t', T=    0.040029166957462 / 
&RAMP ID='t', T=    0.040032562555585 / 
&RAMP ID='t', T=    0.040035958153709 / 
&RAMP ID='t', T=    0.040042186136476 / 
&RAMP ID='t', T=    0.040048414119243 / 
&RAMP ID='t', T=    0.040054642102011 / 
&RAMP ID='t', T=    0.040060870084778 / 
&RAMP ID='t', T=    0.040073198693781 / 
&RAMP ID='t', T=    0.040094169896362 / 
&RAMP ID='t', T=    0.040115141098942 / 
&RAMP ID='t', T=    0.040136112301523 / 
&RAMP ID='t', T=    0.040157083504104 / 
&RAMP ID='t', T=    0.040178054706685 / 
&RAMP ID='t', T=    0.040199025909266 / 
&RAMP ID='t', T=    0.040219997111846 / 
&RAMP ID='t', T=    0.040240968314427 / 
&RAMP ID='t', T=    0.040279522918732 / 
&RAMP ID='t', T=    0.040318077523037 / 
&RAMP ID='t', T=    0.040356632127343 / 
&RAMP ID='t', T=    0.040395186731648 / 
&RAMP ID='t', T=    0.040433741335953 / 
&RAMP ID='t', T=    0.040472295940258 / 
&RAMP ID='t', T=    0.040510850544563 / 
&RAMP ID='t', T=    0.040549405148868 / 
&RAMP ID='t', T=    0.040587959753173 / 
&RAMP ID='t', T=    0.040626514357478 / 
&RAMP ID='t', T=    0.040665068961783 / 
&RAMP ID='t', T=    0.040703623566088 / 
&RAMP ID='t', T=    0.040742178170393 / 
&RAMP ID='t', T=    0.040780732774698 / 
&RAMP ID='t', T=    0.040819287379003 / 
&RAMP ID='t', T=    0.040857841983308 / 
&RAMP ID='t', T=    0.040896396587614 / 
&RAMP ID='t', T=    0.040934951191919 / 
&RAMP ID='t', T=    0.040961893449462 / 
&RAMP ID='t', T=    0.040980488907650 / 
&RAMP ID='t', T=    0.040993740030382 / 
&RAMP ID='t', T=    0.041006991153115 / 
&RAMP ID='t', T=    0.041020242275848 / 
&RAMP ID='t', T=    0.041033493398581 / 
&RAMP ID='t', T=    0.041046744521314 / 
&RAMP ID='t', T=    0.041056437345509 / 
&RAMP ID='t', T=    0.041063527229799 / 
&RAMP ID='t', T=    0.041070617114089 / 
&RAMP ID='t', T=    0.041077706998379 / 
&RAMP ID='t', T=    0.041084796882669 / 
&RAMP ID='t', T=    0.041091886766959 / 
&RAMP ID='t', T=    0.041098976651249 / 
&RAMP ID='t', T=    0.041106066535539 / 
&RAMP ID='t', T=    0.041113156419829 / 
&RAMP ID='t', T=    0.041120246304119 / 
&RAMP ID='t', T=    0.041134081264276 / 
&RAMP ID='t', T=    0.041147916224433 / 
&RAMP ID='t', T=    0.041161751184590 / 
&RAMP ID='t', T=    0.041175586144747 / 
&RAMP ID='t', T=    0.041189421104904 / 
&RAMP ID='t', T=    0.041203256065060 / 
&RAMP ID='t', T=    0.041224526807840 / 
&RAMP ID='t', T=    0.041245797550619 / 
&RAMP ID='t', T=    0.041267068293398 / 
&RAMP ID='t', T=    0.041288339036177 / 
&RAMP ID='t', T=    0.041309609778956 / 
&RAMP ID='t', T=    0.041330880521735 / 
&RAMP ID='t', T=    0.041352151264514 / 
&RAMP ID='t', T=    0.041373422007293 / 
&RAMP ID='t', T=    0.041394692750072 / 
&RAMP ID='t', T=    0.041415963492851 / 
&RAMP ID='t', T=    0.041437234235630 / 
&RAMP ID='t', T=    0.041458504978409 / 
&RAMP ID='t', T=    0.041479775721188 / 
&RAMP ID='t', T=    0.041501046463967 / 
&RAMP ID='t', T=    0.041522317206747 / 
&RAMP ID='t', T=    0.041543587949526 / 
&RAMP ID='t', T=    0.041564858692305 / 
&RAMP ID='t', T=    0.041586129435084 / 
&RAMP ID='t', T=    0.041607400177863 / 
&RAMP ID='t', T=    0.041628670920642 / 
&RAMP ID='t', T=    0.041649941663421 / 
&RAMP ID='t', T=    0.041671212406200 / 
&RAMP ID='t', T=    0.041692483148979 / 
&RAMP ID='t', T=    0.041713753891758 / 
&RAMP ID='t', T=    0.041735024634537 / 
&RAMP ID='t', T=    0.041750728311463 / 
&RAMP ID='t', T=    0.041762157229120 / 
&RAMP ID='t', T=    0.041773586146778 / 
&RAMP ID='t', T=    0.041785015064435 / 
&RAMP ID='t', T=    0.041796443982093 / 
&RAMP ID='t', T=    0.041807872899750 / 
&RAMP ID='t', T=    0.041819301817408 / 
&RAMP ID='t', T=    0.041827516274604 / 
&RAMP ID='t', T=    0.041833328384522 / 
&RAMP ID='t', T=    0.041837630538423 / 
&RAMP ID='t', T=    0.041841932692323 / 
&RAMP ID='t', T=    0.041846234846224 / 
&RAMP ID='t', T=    0.041850537000124 / 
&RAMP ID='t', T=    0.041854839154025 / 
&RAMP ID='t', T=    0.041859141307925 / 
&RAMP ID='t', T=    0.041862190501398 / 
&RAMP ID='t', T=    0.041864380481362 / 
&RAMP ID='t', T=    0.041866570461326 / 
&RAMP ID='t', T=    0.041868760441290 / 
&RAMP ID='t', T=    0.041870950421254 / 
&RAMP ID='t', T=    0.041873140401219 / 
&RAMP ID='t', T=    0.041875330381183 / 
&RAMP ID='t', T=    0.041877520361147 / 
&RAMP ID='t', T=    0.041879710341111 / 
&RAMP ID='t', T=    0.041881900321075 / 
&RAMP ID='t', T=    0.041884090301040 / 
&RAMP ID='t', T=    0.041886280281004 / 
&RAMP ID='t', T=    0.041889684455156 / 
&RAMP ID='t', T=    0.041893088629309 / 
&RAMP ID='t', T=    0.041896492803461 / 
&RAMP ID='t', T=    0.041899896977614 / 
&RAMP ID='t', T=    0.041906520623315 / 
&RAMP ID='t', T=    0.041919099742486 / 
&RAMP ID='t', T=    0.041931678861656 / 
&RAMP ID='t', T=    0.041944257980826 / 
&RAMP ID='t', T=    0.041956837099997 / 
&RAMP ID='t', T=    0.041969416219167 / 
&RAMP ID='t', T=    0.041981995338337 / 
&RAMP ID='t', T=    0.041994574457507 / 
&RAMP ID='t', T=    0.042007153576678 / 
&RAMP ID='t', T=    0.042019732695848 / 
&RAMP ID='t', T=    0.042032311815018 / 
&RAMP ID='t', T=    0.042044890934189 / 
&RAMP ID='t', T=    0.042057470053359 / 
&RAMP ID='t', T=    0.042070049172529 / 
&RAMP ID='t', T=    0.042082628291700 / 
&RAMP ID='t', T=    0.042095207410870 / 
&RAMP ID='t', T=    0.042107786530040 / 
&RAMP ID='t', T=    0.042120365649211 / 
&RAMP ID='t', T=    0.042132944768381 / 
&RAMP ID='t', T=    0.042145523887551 / 
&RAMP ID='t', T=    0.042158103006722 / 
&RAMP ID='t', T=    0.042170682125892 / 
&RAMP ID='t', T=    0.042183261245062 / 
&RAMP ID='t', T=    0.042195840364233 / 
&RAMP ID='t', T=    0.042208419483403 / 
&RAMP ID='t', T=    0.042220998602573 / 
&RAMP ID='t', T=    0.042233577721744 / 
&RAMP ID='t', T=    0.042246156840914 / 
&RAMP ID='t', T=    0.042258735960084 / 
&RAMP ID='t', T=    0.042271315079254 / 
&RAMP ID='t', T=    0.042283894198425 / 
&RAMP ID='t', T=    0.042296473317595 / 
&RAMP ID='t', T=    0.042309052436765 / 
&RAMP ID='t', T=    0.042321631555936 / 
&RAMP ID='t', T=    0.042334210675106 / 
&RAMP ID='t', T=    0.042346789794276 / 
&RAMP ID='t', T=    0.042355442630763 / 
&RAMP ID='t', T=    0.042364095467249 / 
&RAMP ID='t', T=    0.042372748303736 / 
&RAMP ID='t', T=    0.042381401140222 / 
&RAMP ID='t', T=    0.042390053976709 / 
&RAMP ID='t', T=    0.042398706813195 / 
&RAMP ID='t', T=    0.042407359649682 / 
&RAMP ID='t', T=    0.042416012486168 / 
&RAMP ID='t', T=    0.042424665322655 / 
&RAMP ID='t', T=    0.042433318159141 / 
&RAMP ID='t', T=    0.042441970995628 / 
&RAMP ID='t', T=    0.042450623832114 / 
&RAMP ID='t', T=    0.042459276668601 / 
&RAMP ID='t', T=    0.042467929505087 / 
&RAMP ID='t', T=    0.042476582341574 / 
&RAMP ID='t', T=    0.042485235178060 / 
&RAMP ID='t', T=    0.042493888014547 / 
&RAMP ID='t', T=    0.042502540851033 / 
&RAMP ID='t', T=    0.042511193687520 / 
&RAMP ID='t', T=    0.042519846524006 / 
&RAMP ID='t', T=    0.042528499360493 / 
&RAMP ID='t', T=    0.042537152196979 / 
&RAMP ID='t', T=    0.042545805033465 / 
&RAMP ID='t', T=    0.042554457869952 / 
&RAMP ID='t', T=    0.042563110706438 / 
&RAMP ID='t', T=    0.042571763542925 / 
&RAMP ID='t', T=    0.042580416379411 / 
&RAMP ID='t', T=    0.042589069215898 / 
&RAMP ID='t', T=    0.042597722052384 / 
&RAMP ID='t', T=    0.042606374888871 / 
&RAMP ID='t', T=    0.042615027725357 / 
&RAMP ID='t', T=    0.042623680561844 / 
&RAMP ID='t', T=    0.042632333398330 / 
&RAMP ID='t', T=    0.042640986234817 / 
&RAMP ID='t', T=    0.042649639071303 / 
&RAMP ID='t', T=    0.042658291907790 / 
&RAMP ID='t', T=    0.042666944744276 / 
&RAMP ID='t', T=    0.042672924061591 / 
&RAMP ID='t', T=    0.042678903378905 / 
&RAMP ID='t', T=    0.042684882696219 / 
&RAMP ID='t', T=    0.042690862013534 / 
&RAMP ID='t', T=    0.042696841330848 / 
&RAMP ID='t', T=    0.042702820648162 / 
&RAMP ID='t', T=    0.042706948828150 / 
&RAMP ID='t', T=    0.042711077008138 / 
&RAMP ID='t', T=    0.042715205188126 / 
&RAMP ID='t', T=    0.042719333368115 / 
&RAMP ID='t', T=    0.042723461548103 / 
&RAMP ID='t', T=    0.042727589728091 / 
&RAMP ID='t', T=    0.042730381881528 / 
&RAMP ID='t', T=    0.042732330021178 / 
&RAMP ID='t', T=    0.042734278160829 / 
&RAMP ID='t', T=    0.042736226300479 / 
&RAMP ID='t', T=    0.042738174440130 / 
&RAMP ID='t', T=    0.042740122579780 / 
&RAMP ID='t', T=    0.042742070719430 / 
&RAMP ID='t', T=    0.042744018859081 / 
&RAMP ID='t', T=    0.042745966998731 / 
&RAMP ID='t', T=    0.042747915138382 / 
&RAMP ID='t', T=    0.042749244251953 / 
&RAMP ID='t', T=    0.042750573365525 / 
&RAMP ID='t', T=    0.042751902479096 / 
&RAMP ID='t', T=    0.042753231592668 / 
&RAMP ID='t', T=    0.042754560706239 / 
&RAMP ID='t', T=    0.042755889819810 / 
&RAMP ID='t', T=    0.042757989074161 / 
&RAMP ID='t', T=    0.042760088328511 / 
&RAMP ID='t', T=    0.042762187582862 / 
&RAMP ID='t', T=    0.042764286837212 / 
&RAMP ID='t', T=    0.042768421563822 / 
&RAMP ID='t', T=    0.042774848609999 / 
&RAMP ID='t', T=    0.042781275656176 / 
&RAMP ID='t', T=    0.042787702702353 / 
&RAMP ID='t', T=    0.042794129748530 / 
&RAMP ID='t', T=    0.042800556794707 / 
&RAMP ID='t', T=    0.042806983840884 / 