&MESH IJK=8,8,8, XB=0.0,0.40,0.0,0.40,0.0,0.40, MULT_ID='mesh' /
&MULT ID='mesh', DX=0.40, DY=0.40, DZ=0.40, I_UPPER=1, J_UPPER=1, K_UPPER=1 /
