&HEAD CHID='fan_test', TITLE='Test of Fans Connecting Two Sealed Compartments' /

&MESH IJK=20,10,10, XB=-3.0, 0.0,-1.0, 1.0, 0.0, 2.0 /
&MESH IJK=20,10,10, XB= 0.0, 3.0,-1.0, 1.0, 0.0, 2.0 /

&TIME T_END=60.0 /
&DUMP FLUSH_FILE_BUFFERS=T, NFRAMES=60 /
&MISC STRATIFICATION=F,Y_CO2_INFTY=0.,HUMIDITY=0./
&RADI RADIATION=F/

&OBST XB= -0.15, 0.15,-1.0, 1.0, 0.0, 2.0 / Partition Wall

&VENT XB=-0.15,-0.15,-0.2, 0.2, 0.4, 0.6, COLOR='RED', ID='BLOW LEFT 1',SURF_ID='HVAC',IOR=-1/ 
&VENT XB= 0.15, 0.15,-0.2, 0.2, 0.4, 0.6, COLOR='GREEN', ID='BLOW LEFT 2',SURF_ID='HVAC',IOR=1/ 
&VENT XB=-0.15,-0.15,-0.2, 0.2, 1.4, 1.6, COLOR='BLUE', ID='BLOW RIGHT 1',SURF_ID='HVAC',IOR=-1/ 
&VENT XB= 0.15, 0.15,-0.2, 0.2, 1.4, 1.6, COLOR='YELLOW', ID='BLOW RIGHT 2',SURF_ID='HVAC',IOR=1/ 

&HVAC ID='LEFT 1',TYPE_ID='NODE',DUCT_ID='LEFT',VENT_ID='BLOW LEFT 1'/
&HVAC ID='LEFT 2',TYPE_ID='NODE',DUCT_ID='LEFT',VENT_ID='BLOW LEFT 2'/
&HVAC ID='RIGHT 1',TYPE_ID='NODE',DUCT_ID='RIGHT',VENT_ID='BLOW RIGHT 1'/
&HVAC ID='RIGHT 2',TYPE_ID='NODE',DUCT_ID='RIGHT',VENT_ID='BLOW RIGHT 2'/

&HVAC ID='LEFT',TYPE_ID='DUCT',NODE_ID='LEFT 1','LEFT 2',LENGTH=1,AREA=0.04,FAN_ID='LEFT',REVERSE=T,LOSS=0,0/
&HVAC ID='RIGHT',TYPE_ID='DUCT',NODE_ID='RIGHT 1','RIGHT 2',LENGTH=1,AREA=0.04,LOSS=10,10/

&HVAC ID='LEFT',TYPE_ID='FAN',MAX_FLOW=0.16,MAX_PRESSURE=10./

&SLCF PBY=0.0,QUANTITY='TEMPERATURE',VECTOR=T /
&SLCF PBY=0.0,QUANTITY='DENSITY' /
&SLCF PBY=0.0,QUANTITY='PRESSURE' /

&DEVC ID='pres_1', XYZ=-1.5, 0.0, 0.5,  QUANTITY='PRESSURE' /
&DEVC ID='pres_2', XYZ= 1.5, 0.0, 0.5,  QUANTITY='PRESSURE' /
&DEVC ID='vflow1', DUCT_ID='LEFT', QUANTITY='DUCT VOLUME FLOW' / 
&DEVC ID='vflow2', DUCT_ID='RIGHT', QUANTITY='DUCT VOLUME FLOW' / 

&TAIL /

