&HEAD CHID='fan_test', TITLE='Test of Fans Connecting Two Sealed Compartments, SVN $Revision: 2066 $' /

&MESH IJK=30,20,20, XB=-3.0, 0.0,-1.0, 1.0, 0.0, 2.0 /
&MESH IJK=30,20,20, XB= 0.0, 3.0,-1.0, 1.0, 0.0, 2.0 /

&TIME T_END=60.0 /

&ZONE XB=-3.0, 0.0,-1.0, 1.0, 0.0, 2.0 /  Pressure Zone 1
&ZONE XB= 0.0, 3.0,-1.0, 1.0, 0.0, 2.0 /  Pressure Zone 2

&OBST XB= -0.06, 0.05,-1.0, 1.0, 0.0, 2.0 / Partition Wall


&VENT XB=-0.06,-0.06,-0.1, 0.1, 0.4, 0.6, COLOR='RED', ID='BLOW LEFT 1',SURF_ID='HVAC',IOR=-1/ 
&VENT XB= 0.05, 0.05,-0.1, 0.1, 0.4, 0.6, COLOR='GREEN', ID='BLOW LEFT 2',SURF_ID='HVAC',IOR=1/ 
&VENT XB=-0.06,-0.06,-0.1, 0.1, 1.4, 1.6, COLOR='BLUE', ID='BLOW RIGHT 1',SURF_ID='HVAC',IOR=-1/ 
&VENT XB= 0.05, 0.05,-0.1, 0.1, 1.4, 1.6, COLOR='YELLOW', ID='BLOW RIGHT 2',SURF_ID='HVAC',IOR=1/ 

&HVAC ID='LEFT 1',TYPE_ID='NODE',DUCT_ID='LEFT',VENT_ID='BLOW LEFT 1'/
&HVAC ID='LEFT 2',TYPE_ID='NODE',DUCT_ID='LEFT',VENT_ID='BLOW LEFT 2'/
&HVAC ID='RIGHT 1',TYPE_ID='NODE',DUCT_ID='RIGHT',VENT_ID='BLOW RIGHT 1'/
&HVAC ID='RIGHT 2',TYPE_ID='NODE',DUCT_ID='RIGHT',VENT_ID='BLOW RIGHT 2'/

&HVAC ID='LEFT',TYPE_ID='DUCT',NODE_ID='LEFT 1','LEFT 2',LENGTH=1,AREA=0.001,LOSS=1,1,FAN_ID='LEFT'/
&HVAC ID='RIGHT',TYPE_ID='DUCT',NODE_ID='RIGHT 1','RIGHT 2',LENGTH=1,AREA=0.001,LOSS=1,1,FAN_ID='RIGHT',REVERSE=.TRUE./

&HVAC ID='LEFT',TYPE_ID='FAN',MAX_FLOW=0.002,MAX_PRESSURE=1000./
&HVAC ID='RIGHT',TYPE_ID='FAN',MAX_FLOW=0.004,MAX_PRESSURE=1000./

&SLCF PBY=0.0,QUANTITY='TEMPERATURE',VECTOR=.TRUE. /
&SLCF PBY=0.0,QUANTITY='DENSITY' /
&SLCF PBY=0.0,QUANTITY='PRESSURE' /

&DEVC ID='pres_1', XYZ=-1.5, 0.0, 0.5,  QUANTITY='PRESSURE' /
&DEVC ID='pres_2', XYZ= 1.5, 0.0, 0.5,  QUANTITY='PRESSURE' /
&DEVC ID='vflow1', XB=0.0,0.0,-0.1,0.1,0.4,0.6, QUANTITY='VOLUME FLOW' / 
&DEVC ID='vflow2', XB=0.0,0.0,-0.1,0.1,1.4,1.6, QUANTITY='VOLUME FLOW' / 

&TAIL /

