&HEAD CHID='leak_test_3'/

&MESH XB=0,2.2,0,1,0,1, IJK=22,10,10 /
&MESH XB=3,5.2,0,1,0,1, IJK=22,10,10 /

&TIME T_END=30.0 /
&DUMP FLUSH_FILE_BUFFERS=F, NFRAMES=60/
&PRES SOLVER='ULMAT'/

&RADI RADIATION=F/

&ZONE XYZ=0.5,0.5,0.5, LEAK_AREA(2)=0.001 /
&ZONE XYZ=1.7,0.5,0.5, LEAK_AREA(0)=0.001 /

&ZONE XYZ=3.5,0.5,0.5, LEAK_AREA(4)=0.001 /
&ZONE XYZ=4.7,0.5,0.5, LEAK_AREA(0)=0.001 /

&OBST XB=1,1.2,0,1,0,1, SURF_ID='LEAK12' /
&GEOM XB=4,4.2,0,1,0,1, SURF_ID='LEAK34' /

&SURF ID='LEAK12', COLOR='ORANGE', LEAK_PATH=1,2 /
&SURF ID='LEAK0a', COLOR='BLUE',   LEAK_PATH=0,2 /

&SURF ID='LEAK34', COLOR='GREEN',  LEAK_PATH=3,4 /
&SURF ID='LEAK0b', COLOR='YELLOW', LEAK_PATH=0,4 /

&SLCF QUANTITY='PRESSURE',      PBY=0.5 /
&SLCF QUANTITY='PRESSURE ZONE', PBY=0.5 /

&SURF ID='BLOW', VOLUME_FLOW=-0.02, COLOR='RED' /

&VENT XB=0.3,0.7,0.3,0.7,0.0,0.0, SURF_ID='BLOW' /
&VENT XB=3.3,3.7,0.3,0.7,0.0,0.0, SURF_ID='BLOW' /

&VENT PBX=2.2, SURF_ID='LEAK0a' /
&VENT PBX=5.2, SURF_ID='LEAK0b' /

&DEVC ID='p1', XYZ=0.5,0.5,0.5, QUANTITY='PRESSURE' /
&DEVC ID='p2', XYZ=1.5,0.5,0.5, QUANTITY='PRESSURE' /
&DEVC ID='p3', XYZ=3.5,0.5,0.5, QUANTITY='PRESSURE' /
&DEVC ID='p4', XYZ=4.5,0.5,0.5, QUANTITY='PRESSURE' /

&TAIL /
