&HEAD CHID='leak_test_4'/

&MESH XB=-2.0,2.0,-2.0,2.0,-2.0,2.0, IJK=40,40,40 /

&TIME T_END=30. /
&DUMP NFRAMES=60/
&PRES SOLVER='ULMAT'/

&RADI RADIATION=F/

&ZONE XYZ=0.0,0.0,0.0, LEAK_AREA(0)=0.001 /

&MOVE ID='spin', AXIS=-1,-1,-1, X0=0.0, Y0=0.0, Z0=0.0, ROTATION_ANGLE=45. /
&GEOM XB=-1.25, -1.0,-1.25, 1.25,-1.25, 1.25, MOVE_ID='spin' /
&GEOM XB=  1.0, 1.25,-1.25, 1.25,-1.25, 1.25, MOVE_ID='spin' /
&GEOM XB= -1.0,  1.0,-1.25, -1.0,-1.25, 1.25, MOVE_ID='spin' /
&GEOM XB= -1.0,  1.0,  1.0, 1.25,-1.25, 1.25, MOVE_ID='spin' /
&GEOM XB= -1.0,  1.0, -1.0,  1.0,-1.25, -1.0, MOVE_ID='spin' /
&GEOM XB= -1.0,  1.0, -1.0,  1.0,  1.0, 1.25, MOVE_ID='spin' /

&GEOM XB=-0.1, 0.1,-0.1, 0.1,-0.1, 0.1, MOVE_ID='spin', SURF_ID='BLOW' /

&VENT MB='XMIN', SURF_ID='OPEN' /
&VENT MB='XMAX', SURF_ID='OPEN' /
&VENT MB='YMIN', SURF_ID='OPEN' /
&VENT MB='YMAX', SURF_ID='OPEN' /
&VENT MB='ZMIN', SURF_ID='OPEN' /
&VENT MB='ZMAX', SURF_ID='OPEN' /

&SURF ID='LEAKY WALL', COLOR='ORANGE', LEAK_PATH=1,0, DEFAULT=T /

&SLCF QUANTITY='PRESSURE',      PBY=0.0, CELL_CENTERED=T /
&SLCF QUANTITY='PRESSURE ZONE', PBY=0.0, CELL_CENTERED=T /

&SURF ID='BLOW', VEL=-0.1, COLOR='RED' /

&DEVC ID='p1', XYZ=0.0,0.0,0.0, QUANTITY='PRESSURE' /

&TAIL /
