&HEAD CHID='leak_test_2', TITLE='Test of Leakage and Fans' /

&MESH IJK=20,10,10, XB=-1.0, 1.0, 0.0, 1.0, 0.0, 1.0 /

&TIME T_END=30.0 /
!&DUMP FLUSH_FILE_BUFFERS=F, NFRAMES=60/

&RADI RADIATION=F/

&ZONE XYZ=-0.5,0.5,0.5 /
&ZONE XYZ= 0.5,0.5,0.5, LEAK_AREA(1)=0.002, LEAK_AREA(0)=0.002 / for Case 2

&SPEC MW=28.,ID='BACKGROUND',BACKGROUND=T/

&OBST XB=-0.1,0.1,0.0,1.0,0.1,1.0/

&VENT XB=-0.1,-0.1,0.4,0.6,0.7,0.9,, COLOR='PINK',  SURF_ID='HVAC',ID='IN' /
&VENT XB= 0.1, 0.1,0.4,0.6,0.7,0.9, COLOR='RED',   SURF_ID='HVAC',ID='OUT' /

&HVAC ID='IN',TYPE_ID='NODE',DUCT_ID='DUCT1',VENT_ID='IN'/
&HVAC ID='OUT',TYPE_ID='NODE',DUCT_ID='DUCT1',VENT_ID='OUT'/
&HVAC ID='DUCT1',TYPE_ID='DUCT',NODE_ID='IN','OUT',LENGTH=0.1,AREA=0.1,LOSS=0.0,0.0,FAN_ID='FAN'/
&HVAC ID='FAN',TYPE_ID='FAN',TAU_FAN=1.,MAX_FLOW=0.06,MAX_PRESSURE=300./


&OBST XB=-0.1,0.1,0.0,1.0,0.0,0.1/


&SURF ID='LEAK',LEAK_PATH=1,2/
&SURF ID='LEAK2',LEAK_PATH=2,0/

&VENT XB=-0.2,-0.1,0.0,1.0,0.0,0.0, COLOR='GREEN',SURF_ID='LEAK' /
&VENT XB= 0.1, 0.2,0.0,1.0,0.0,0.0, COLOR='ORANGE',SURF_ID='LEAK' /

&VENT XB= 0.9,1.0,0.0,1.0,0.0,0.0, COLOR='BLUE',SURF_ID='LEAK2' / for Case 2

&SLCF PBY=0.5,QUANTITY='TEMPERATURE',VECTOR=T /
&SLCF PBY=0.5,QUANTITY='DENSITY' /
&SLCF PBY=0.5,QUANTITY='PRESSURE' /

&BNDF QUANTITY='NET HEAT FLUX'/

&DEVC ID='pres_1', XYZ=-0.5,0.5,0.0, QUANTITY='PRESSURE' /
&DEVC ID='pres_2', XYZ= 0.5,0.5,0.0, QUANTITY='PRESSURE' /

&DEVC ID='1',QUANTITY='DUCT VELOCITY',DUCT_ID='DUCT1'/
&DEVC ID='02',QUANTITY='DUCT VELOCITY',DUCT_ID='LEAK 0 2'/
&DEVC ID='12',QUANTITY='DUCT VELOCITY',DUCT_ID='LEAK 1 2'/
&DEVC ID='021',QUANTITY='NODE PRESSURE',NODE_ID='LEAK 0 2'/
&DEVC ID='022',QUANTITY='NODE PRESSURE',NODE_ID='LEAK 2 0'/

&TAIL /


