&HEAD CHID='cell_test', TITLE='Check cell center values in smokeview'/

&MESH XB=0.0,3.0,0.0,4.0,0.0,5.0, IJK=3,4,5 /

&MISC SOLID_PHASE_ONLY=.TRUE./

&TIME T_END=0.1, DT=0.1 /

&INIT XB= 0.0, 1.0, 0.0, 1.0, 0.0, 1.0, TEMPERATURE=111.  /
&INIT XB= 1.0, 2.0, 0.0, 1.0, 0.0, 1.0, TEMPERATURE=211.  /
&INIT XB= 2.0, 3.0, 0.0, 1.0, 0.0, 1.0, TEMPERATURE=311.  /

&INIT XB= 0.0, 1.0, 1.0, 2.0, 0.0, 1.0, TEMPERATURE=121.  /
&INIT XB= 1.0, 2.0, 1.0, 2.0, 0.0, 1.0, TEMPERATURE=221.  /
&INIT XB= 2.0, 3.0, 1.0, 2.0, 0.0, 1.0, TEMPERATURE=321.  /

&INIT XB= 0.0, 1.0, 2.0, 3.0, 0.0, 1.0, TEMPERATURE=131.  /
&INIT XB= 1.0, 2.0, 2.0, 3.0, 0.0, 1.0, TEMPERATURE=231.  /
&INIT XB= 2.0, 3.0, 2.0, 3.0, 0.0, 1.0, TEMPERATURE=331.  /

&INIT XB= 0.0, 1.0, 3.0, 4.0, 0.0, 1.0, TEMPERATURE=141.  /
&INIT XB= 1.0, 2.0, 3.0, 4.0, 0.0, 1.0, TEMPERATURE=241.  /
&INIT XB= 2.0, 3.0, 3.0, 4.0, 0.0, 1.0, TEMPERATURE=341.  /



&INIT XB= 0.0, 1.0, 0.0, 1.0, 1.0, 2.0, TEMPERATURE=112.  /
&INIT XB= 1.0, 2.0, 0.0, 1.0, 1.0, 2.0, TEMPERATURE=212.  /
&INIT XB= 2.0, 3.0, 0.0, 1.0, 1.0, 2.0, TEMPERATURE=312.  /

&INIT XB= 0.0, 1.0, 1.0, 2.0, 1.0, 2.0, TEMPERATURE=122.  /
&INIT XB= 1.0, 2.0, 1.0, 2.0, 1.0, 2.0, TEMPERATURE=222.  /
&INIT XB= 2.0, 3.0, 1.0, 2.0, 1.0, 2.0, TEMPERATURE=322.  /

&INIT XB= 0.0, 1.0, 2.0, 3.0, 1.0, 2.0, TEMPERATURE=132.  /
&INIT XB= 1.0, 2.0, 2.0, 3.0, 1.0, 2.0, TEMPERATURE=232.  /
&INIT XB= 2.0, 3.0, 2.0, 3.0, 1.0, 2.0, TEMPERATURE=332.  /

&INIT XB= 0.0, 1.0, 3.0, 4.0, 1.0, 2.0, TEMPERATURE=142.  /
&INIT XB= 1.0, 2.0, 3.0, 4.0, 1.0, 2.0, TEMPERATURE=242.  /
&INIT XB= 2.0, 3.0, 3.0, 4.0, 1.0, 2.0, TEMPERATURE=342.  /



&INIT XB= 0.0, 1.0, 0.0, 1.0, 2.0, 3.0, TEMPERATURE=113.  /
&INIT XB= 1.0, 2.0, 0.0, 1.0, 2.0, 3.0, TEMPERATURE=213.  /
&INIT XB= 2.0, 3.0, 0.0, 1.0, 2.0, 3.0, TEMPERATURE=313.  /

&INIT XB= 0.0, 1.0, 1.0, 2.0, 2.0, 3.0, TEMPERATURE=123.  /
&INIT XB= 1.0, 2.0, 1.0, 2.0, 2.0, 3.0, TEMPERATURE=223.  /
&INIT XB= 2.0, 3.0, 1.0, 2.0, 2.0, 3.0, TEMPERATURE=323.  /

&INIT XB= 0.0, 1.0, 2.0, 3.0, 2.0, 3.0, TEMPERATURE=133.  /
&INIT XB= 1.0, 2.0, 2.0, 3.0, 2.0, 3.0, TEMPERATURE=233.  /
&INIT XB= 2.0, 3.0, 2.0, 3.0, 2.0, 3.0, TEMPERATURE=333.  /

&INIT XB= 0.0, 1.0, 3.0, 4.0, 2.0, 3.0, TEMPERATURE=143.  /
&INIT XB= 1.0, 2.0, 3.0, 4.0, 2.0, 3.0, TEMPERATURE=243.  /
&INIT XB= 2.0, 3.0, 3.0, 4.0, 2.0, 3.0, TEMPERATURE=343.  /



&INIT XB= 0.0, 1.0, 0.0, 1.0, 3.0, 4.0, TEMPERATURE=114.  /
&INIT XB= 1.0, 2.0, 0.0, 1.0, 3.0, 4.0, TEMPERATURE=214.  /
&INIT XB= 2.0, 3.0, 0.0, 1.0, 3.0, 4.0, TEMPERATURE=314.  /

&INIT XB= 0.0, 1.0, 1.0, 2.0, 3.0, 4.0, TEMPERATURE=124.  /
&INIT XB= 1.0, 2.0, 1.0, 2.0, 3.0, 4.0, TEMPERATURE=224.  /
&INIT XB= 2.0, 3.0, 1.0, 2.0, 3.0, 4.0, TEMPERATURE=324.  /

&INIT XB= 0.0, 1.0, 2.0, 3.0, 3.0, 4.0, TEMPERATURE=134.  /
&INIT XB= 1.0, 2.0, 2.0, 3.0, 3.0, 4.0, TEMPERATURE=234.  /
&INIT XB= 2.0, 3.0, 2.0, 3.0, 3.0, 4.0, TEMPERATURE=334.  /

&INIT XB= 0.0, 1.0, 3.0, 4.0, 3.0, 4.0, TEMPERATURE=144.  /
&INIT XB= 1.0, 2.0, 3.0, 4.0, 3.0, 4.0, TEMPERATURE=244.  /
&INIT XB= 2.0, 3.0, 3.0, 4.0, 3.0, 4.0, TEMPERATURE=344.  /


&INIT XB= 0.0, 1.0, 0.0, 1.0, 4.0, 5.0, TEMPERATURE=115.  /
&INIT XB= 1.0, 2.0, 0.0, 1.0, 4.0, 5.0, TEMPERATURE=215.  /
&INIT XB= 2.0, 3.0, 0.0, 1.0, 4.0, 5.0, TEMPERATURE=315.  /

&INIT XB= 0.0, 1.0, 1.0, 2.0, 4.0, 5.0, TEMPERATURE=125.  /
&INIT XB= 1.0, 2.0, 1.0, 2.0, 4.0, 5.0, TEMPERATURE=225.  /
&INIT XB= 2.0, 3.0, 1.0, 2.0, 4.0, 5.0, TEMPERATURE=325.  /

&INIT XB= 0.0, 1.0, 2.0, 3.0, 4.0, 5.0, TEMPERATURE=135.  /
&INIT XB= 1.0, 2.0, 2.0, 3.0, 4.0, 5.0, TEMPERATURE=235.  /
&INIT XB= 2.0, 3.0, 2.0, 3.0, 4.0, 5.0, TEMPERATURE=335.  /

&INIT XB= 0.0, 1.0, 3.0, 4.0, 4.0, 5.0, TEMPERATURE=145.  /
&INIT XB= 1.0, 2.0, 3.0, 4.0, 4.0, 5.0, TEMPERATURE=245.  /
&INIT XB= 2.0, 3.0, 3.0, 4.0, 4.0, 5.0, TEMPERATURE=345.  /

&SLCF XB=0.0,3.0,0.0,4.0,0.0,5.0, QUANTITY='TEMPERATURE', CELL_CENTERED=.TRUE. /

&SLCF PBX=0.5, QUANTITY='TEMPERATURE', CELL_CENTERED=.TRUE. /
&SLCF PBX=1.5, QUANTITY='TEMPERATURE', CELL_CENTERED=.TRUE. /
&SLCF PBX=2.5, QUANTITY='TEMPERATURE', CELL_CENTERED=.TRUE. /

&SLCF PBY=0.5, QUANTITY='TEMPERATURE', CELL_CENTERED=.TRUE. /
&SLCF PBY=1.5, QUANTITY='TEMPERATURE', CELL_CENTERED=.TRUE. /
&SLCF PBY=2.5, QUANTITY='TEMPERATURE', CELL_CENTERED=.TRUE. /
&SLCF PBY=3.5, QUANTITY='TEMPERATURE', CELL_CENTERED=.TRUE. /

&SLCF PBZ=0.5, QUANTITY='TEMPERATURE', CELL_CENTERED=.TRUE. /
&SLCF PBZ=1.5, QUANTITY='TEMPERATURE', CELL_CENTERED=.TRUE. /
&SLCF PBZ=2.5, QUANTITY='TEMPERATURE', CELL_CENTERED=.TRUE. /
&SLCF PBZ=3.5, QUANTITY='TEMPERATURE', CELL_CENTERED=.TRUE. /
&SLCF PBZ=4.5, QUANTITY='TEMPERATURE', CELL_CENTERED=.TRUE. /


&TAIL /
