&HEAD CHID='fed_test_area', TITLE='Check FED computation in smokeview'/

&MESH XB=-0.1,2.3,0.0,0.1,-0.1,1.1, IJK=24,1,12 /

&TIME T_END=360.0, DT=0.1 /
&DUMP NFRAMES=2880 /

&SPEC ID='NITROGEN', BACKGROUND=.TRUE. /
&SPEC ID='OXYGEN' /
&SPEC ID='CARBON DIOXIDE' /
&SPEC ID='CARBON MONOXIDE'/

&OBST XB = -0.1,0.0,0.0,0.1,-0.1,1.1, COLOR='COBALT GREEN'  /
&OBST XB =  1.0,1.2,0.0,0.1,-0.1,1.1, COLOR='COBALT GREEN'  /
&OBST XB =  2.2,2.3,0.0,0.1,-0.1,1.1, COLOR='COBALT GREEN'  /
&OBST XB = -0.1,2.3,0.0,0.2,-0.1,0.0, COLOR='COBALT GREEN'  /
&OBST XB = -0.1,2.3,0.0,0.2, 1.0,1.1, COLOR='COBALT GREEN'  /

&INIT XB=0.0,1.0,0.0,0.1,0.0,1.0 
      MASS_FRACTION(1)=0.078322, SPEC_ID(1)='OXYGEN',
      MASS_FRACTION(2)=0.030769,SPEC_ID(2)='CARBON DIOXIDE' 
      MASS_FRACTION(3)=0.000979,SPEC_ID(3)='CARBON MONOXIDE' /

&INIT XB=1.2,2.2,0.0,0.1,0.0,1.0 
      MASS_FRACTION(1)=0.09,    SPEC_ID(1)='OXYGEN',
      MASS_FRACTION(2)=0.035,   SPEC_ID(2)='CARBON DIOXIDE' 
      MASS_FRACTION(3)=0.00008, SPEC_ID(3)='CARBON MONOXIDE' /


&DEVC ID='DEV1A', XYZ=0.5,0.05,0.5, QUANTITY='FED' /
&DEVC ID='DEV1B', XYZ=1.7,0.05,0.5, QUANTITY='FED' /

&SLCF PBY=0.05,QUANTITY='VOLUME FRACTION' SPEC_ID='CARBON DIOXIDE' /
&SLCF PBY=0.05,QUANTITY='VOLUME FRACTION' SPEC_ID='CARBON MONOXIDE' /
&SLCF PBY=0.05,QUANTITY='VOLUME FRACTION' SPEC_ID='OXYGEN' /
&SLCF PBY=0.05,QUANTITY='VOLUME FRACTION' SPEC_ID='CARBON DIOXIDE', CELL_CENTERED=.TRUE. /
&SLCF PBY=0.05,QUANTITY='VOLUME FRACTION' SPEC_ID='CARBON MONOXIDE', CELL_CENTERED=.TRUE. /
&SLCF PBY=0.05,QUANTITY='VOLUME FRACTION' SPEC_ID='OXYGEN', CELL_CENTERED=.TRUE. /

&TAIL /
