&HEAD CHID='geom_time' /

&TIME T_END=0.0, T_END_GEOM=1000.0 /
&MESH IJK=10,10,10,XB=-1.0,1.0,-1.0,1.0,-1.0,1.0 /

&SURF ID='surf1',RGB=255,0,0 /
&SURF ID='surf2',RGB=0,255,0 /
&SURF ID='surf3',RGB=0,0,255 /

&GEOM ID='geom4',
        VERTS=0.0,0.0,0.0,
              0.0,1.0,0.0,
              0.0,1.0,1.0,FACES=1,2,3,AZIM=0.0,AZIM_DOT=0.36,SURF_ID='surf1'/


