&MESH IJK=8,1,8, XB=0.0,0.4,-0.01,0.01,0.0,0.4 /
&MESH IJK=8,1,8, XB=0.4,0.8,-0.01,0.01,0.0,0.4 /
&MESH IJK=8,1,8, XB=0.0,0.4,-0.01,0.01,0.4,0.8 /
&MESH IJK=8,1,8, XB=0.4,0.8,-0.01,0.01,0.4,0.8 /
