&HEAD CHID='external_test',TITLE='Test of External Control'/

&MESH IJK=10,10,10,XB=0,1,0,1,0,1,MULT_ID='M1'/
&MULT ID='M1',I_UPPER=1,DX=1/

&TIME T_END=10,DT_EXTERNAL=5/

&MISC EXTERNAL_FILENAME='external_test_input.csv'/

&RADI RADIATION=F/

&DUMP &DUMP FLUSH_FILE_BUFFERS=F, NFRAMES=20/

&CTRL ID='VENT CTRL',FUNCTION_TYPE='EXTERNAL',INITIAL_STATE=T/

&SURF ID='HOT',TMP_FRONT=1000,RAMP_T='T RAMP',COLOR='RED'/
&SURF ID='FLOW',VEL=-1,COLOR='BLUE',TAU_V=0/

&OBST XB=0,0.1,0,1,0,1/
&VENT XB=0.1,0.1,0,1,0,1,SURF_ID='FLOW',CTRL_ID='VENT CTRL'/
&VENT XB=2,2,0,1,0,1,SURF_ID='HOT'/
&VENT PBZ=0,SURF_ID='OPEN'/
&VENT PBZ=1,SURF_ID='OPEN'/

&RAMP ID='T RAMP',EXTERNAL_FILE=T,INITIAL_VALUE=0.081633/

&DEVC XYZ=0.1,0.5,0.5,QUANTITY='NORMAL VELOCITY',ID='V',IOR=1/
&DEVC XYZ=2.0,0.5,0.5,QUANTITY='WALL TEMPERATURE',ID='T',IOR=-1/


&SLCF QUANTITY='TEMPERATURE',VECTOR=T,PBY=0.5/

