An ISO 9701 compartment with a fan blowing into it, a small fire, and a crack under the door.

&HEAD CHID='door_crack', TITLE='Test of smoke leaking under a door, SVN $Revision$' /

&MESH IJK=50,40,32, XB=-2.5, 2.5,-2.0, 2.0, 0.0, 3.2 /

&TIME T_END=300.0 /

&SURF ID='DOOR CRACK', LEAK_PATH=1,0, POROUS=.TRUE. /
&SURF ID='FAN GRILL',  VEL=0.1, MAX_PRESSURE=1000., DUCT_PATH=1,0, POROUS=.TRUE. /
&SURF ID='BURNER', COLOR='YELLOW', HRRPUA=1000. /

&ZONE XB=-1.80, 1.80,-1.20, 1.20, 0.00, 2.40, LEAK_AREA(0)=0.0001 /  

&OBST XB=-1.90, 1.90,-1.30,-1.20, 0.00, 2.50 / Left Wall
&OBST XB=-1.90, 1.90, 1.20, 1.30, 0.00, 2.50 / Right Wall
&OBST XB=-1.90,-1.80,-1.20, 1.20, 0.00, 2.50 / Back Wall
&OBST XB=-1.80, 1.80,-1.20, 1.20, 2.40, 2.50 / Ceiling
&OBST XB= 1.80, 1.90,-1.20,-0.50, 0.00, 2.50 / Panel to Left of Door
&OBST XB= 1.80, 1.90, 0.50, 1.20, 0.00, 2.50 / Panel to Right of Door
&OBST XB= 1.80, 1.90,-0.50, 0.50, 2.00, 2.50 / Soffit
&OBST XB= 1.80, 1.90,-0.50, 0.50, 0.10, 2.00, COLOR='GREEN' / Door

&HOLE XB=-1.90,-1.80,-0.20, 0.20, 0.80, 1.20 / 
&OBST XB=-1.80,-1.80,-0.20, 0.20, 0.80, 1.20, COLOR='RED',  SURF_ID='FAN GRILL', PERMIT_HOLE=.FALSE., REMOVABLE=.FALSE. / 
&OBST XB= 1.80, 1.80,-0.50, 0.50, 0.00, 0.10, COLOR='BLUE', SURF_ID='DOOR CRACK' / 

&VENT XB=-0.20, 0.20,-0.20, 0.20, 0.00, 0.00, SURF_ID='BURNER' / 
&VENT MB='XMIN', SURF_ID='OPEN' / 
&VENT MB='XMAX', SURF_ID='OPEN' / 
&VENT MB='YMIN', SURF_ID='OPEN' / 
&VENT MB='YMAX', SURF_ID='OPEN' / 
&VENT MB='ZMAX', SURF_ID='OPEN' / 

&SLCF PBY=0.0,QUANTITY='TEMPERATURE',VECTOR=.TRUE. /
&SLCF PBY=0.0,QUANTITY='fuel' /
&SLCF PBY=0.0,QUANTITY='oxygen' /
&SLCF PBY=0.0,QUANTITY='PRESSURE' /

&DEVC ID='Pressure', XYZ=0.0,0.0,0.5, QUANTITY='PRESSURE' /

&TAIL /

