Test of parallel version of FDS. 
A simple plume in the unit cube, broken up into 64 meshes.

&HEAD CHID='scaling_test', TITLE='Test case for 64 CPUs, SVN $Revision$' /

&MESH IJK=100,100,100, XB=0.00,0.25,0.00,0.25,0.00,0.25 /
&MESH IJK=100,100,100, XB=0.25,0.50,0.00,0.25,0.00,0.25 /
&MESH IJK=100,100,100, XB=0.50,0.75,0.00,0.25,0.00,0.25 /
&MESH IJK=100,100,100, XB=0.75,1.00,0.00,0.25,0.00,0.25 /
&MESH IJK=100,100,100, XB=0.00,0.25,0.25,0.50,0.00,0.25 /
&MESH IJK=100,100,100, XB=0.25,0.50,0.25,0.50,0.00,0.25 /
&MESH IJK=100,100,100, XB=0.50,0.75,0.25,0.50,0.00,0.25 /
&MESH IJK=100,100,100, XB=0.75,1.00,0.25,0.50,0.00,0.25 /
&MESH IJK=100,100,100, XB=0.00,0.25,0.50,0.75,0.00,0.25 /
&MESH IJK=100,100,100, XB=0.25,0.50,0.50,0.75,0.00,0.25 /
&MESH IJK=100,100,100, XB=0.50,0.75,0.50,0.75,0.00,0.25 /
&MESH IJK=100,100,100, XB=0.75,1.00,0.50,0.75,0.00,0.25 /
&MESH IJK=100,100,100, XB=0.00,0.25,0.75,1.00,0.00,0.25 /
&MESH IJK=100,100,100, XB=0.25,0.50,0.75,1.00,0.00,0.25 /
&MESH IJK=100,100,100, XB=0.50,0.75,0.75,1.00,0.00,0.25 /
&MESH IJK=100,100,100, XB=0.75,1.00,0.75,1.00,0.00,0.25 /

&MESH IJK=100,100,100, XB=0.00,0.25,0.00,0.25,0.25,0.50 /
&MESH IJK=100,100,100, XB=0.25,0.50,0.00,0.25,0.25,0.50 /
&MESH IJK=100,100,100, XB=0.50,0.75,0.00,0.25,0.25,0.50 /
&MESH IJK=100,100,100, XB=0.75,1.00,0.00,0.25,0.25,0.50 /
&MESH IJK=100,100,100, XB=0.00,0.25,0.25,0.50,0.25,0.50 /
&MESH IJK=100,100,100, XB=0.25,0.50,0.25,0.50,0.25,0.50 /
&MESH IJK=100,100,100, XB=0.50,0.75,0.25,0.50,0.25,0.50 /
&MESH IJK=100,100,100, XB=0.75,1.00,0.25,0.50,0.25,0.50 /
&MESH IJK=100,100,100, XB=0.00,0.25,0.50,0.75,0.25,0.50 /
&MESH IJK=100,100,100, XB=0.25,0.50,0.50,0.75,0.25,0.50 /
&MESH IJK=100,100,100, XB=0.50,0.75,0.50,0.75,0.25,0.50 /
&MESH IJK=100,100,100, XB=0.75,1.00,0.50,0.75,0.25,0.50 /
&MESH IJK=100,100,100, XB=0.00,0.25,0.75,1.00,0.25,0.50 /
&MESH IJK=100,100,100, XB=0.25,0.50,0.75,1.00,0.25,0.50 /
&MESH IJK=100,100,100, XB=0.50,0.75,0.75,1.00,0.25,0.50 /
&MESH IJK=100,100,100, XB=0.75,1.00,0.75,1.00,0.25,0.50 /

&MESH IJK=100,100,100, XB=0.00,0.25,0.00,0.25,0.50,0.75 /
&MESH IJK=100,100,100, XB=0.25,0.50,0.00,0.25,0.50,0.75 /
&MESH IJK=100,100,100, XB=0.50,0.75,0.00,0.25,0.50,0.75 /
&MESH IJK=100,100,100, XB=0.75,1.00,0.00,0.25,0.50,0.75 /
&MESH IJK=100,100,100, XB=0.00,0.25,0.25,0.50,0.50,0.75 /
&MESH IJK=100,100,100, XB=0.25,0.50,0.25,0.50,0.50,0.75 /
&MESH IJK=100,100,100, XB=0.50,0.75,0.25,0.50,0.50,0.75 /
&MESH IJK=100,100,100, XB=0.75,1.00,0.25,0.50,0.50,0.75 /
&MESH IJK=100,100,100, XB=0.00,0.25,0.50,0.75,0.50,0.75 /
&MESH IJK=100,100,100, XB=0.25,0.50,0.50,0.75,0.50,0.75 /
&MESH IJK=100,100,100, XB=0.50,0.75,0.50,0.75,0.50,0.75 /
&MESH IJK=100,100,100, XB=0.75,1.00,0.50,0.75,0.50,0.75 /
&MESH IJK=100,100,100, XB=0.00,0.25,0.75,1.00,0.50,0.75 /
&MESH IJK=100,100,100, XB=0.25,0.50,0.75,1.00,0.50,0.75 /
&MESH IJK=100,100,100, XB=0.50,0.75,0.75,1.00,0.50,0.75 /
&MESH IJK=100,100,100, XB=0.75,1.00,0.75,1.00,0.50,0.75 /

&MESH IJK=100,100,100, XB=0.00,0.25,0.00,0.25,0.75,1.00 /
&MESH IJK=100,100,100, XB=0.25,0.50,0.00,0.25,0.75,1.00 /
&MESH IJK=100,100,100, XB=0.50,0.75,0.00,0.25,0.75,1.00 /
&MESH IJK=100,100,100, XB=0.75,1.00,0.00,0.25,0.75,1.00 /
&MESH IJK=100,100,100, XB=0.00,0.25,0.25,0.50,0.75,1.00 /
&MESH IJK=100,100,100, XB=0.25,0.50,0.25,0.50,0.75,1.00 /
&MESH IJK=100,100,100, XB=0.50,0.75,0.25,0.50,0.75,1.00 /
&MESH IJK=100,100,100, XB=0.75,1.00,0.25,0.50,0.75,1.00 /
&MESH IJK=100,100,100, XB=0.00,0.25,0.50,0.75,0.75,1.00 /
&MESH IJK=100,100,100, XB=0.25,0.50,0.50,0.75,0.75,1.00 /
&MESH IJK=100,100,100, XB=0.50,0.75,0.50,0.75,0.75,1.00 /
&MESH IJK=100,100,100, XB=0.75,1.00,0.50,0.75,0.75,1.00 /
&MESH IJK=100,100,100, XB=0.00,0.25,0.75,1.00,0.75,1.00 /
&MESH IJK=100,100,100, XB=0.25,0.50,0.75,1.00,0.75,1.00 /
&MESH IJK=100,100,100, XB=0.50,0.75,0.75,1.00,0.75,1.00 /
&MESH IJK=100,100,100, XB=0.75,1.00,0.75,1.00,0.75,1.00 /

&TIME T_END=20.0 /

&SURF ID='HOT', VEL=-0.5, TMP_FRONT=100., COLOR='RED' /

&VENT XB=0.3,0.7,0.3,0.7,0.0,0.0,SURF_ID='HOT' /
&VENT PBZ=1.0, SURF_ID='OPEN' /
&VENT PBX=0.0, SURF_ID='OPEN' /
&VENT PBX=1.0, SURF_ID='OPEN' /
&VENT PBY=0.0, SURF_ID='OPEN' /
&VENT PBY=1.0, SURF_ID='OPEN' /
&SLCF PBY=0.5, QUANTITY='TEMPERATURE', VECTOR=.TRUE. /

&TAIL /
