&HEAD CHID='PRISME_LK_2_Upper', TITLE='PRISME Test' / 

&MESH IJK=12,9,9, XB=-.30,0.30,-.225,0.225,-.225,0.225 / 

&TIME DT=0.2, TWFIN=2000.0 / 

&MISC TMPA=30., SURF_DEFAULT='HOT' /

&SURF ID='HOT', TMP_FRONT=1030., COLOR='GRAY', RAMP_T='shroud' / 
&RAMP ID='shroud',T=   0.,F=0. /
&RAMP ID='shroud',T=  12.,F=0.001 /
&RAMP ID='shroud',T=  65.,F=0.056 /
&RAMP ID='shroud',T= 140.,F=0.177 /
&RAMP ID='shroud',T= 280.,F=0.348 /
&RAMP ID='shroud',T= 425.,F=0.434 /
&RAMP ID='shroud',T= 550.,F=0.446 /
&RAMP ID='shroud',T= 740.,F=0.570 /
&RAMP ID='shroud',T= 880.,F=0.638 /
&RAMP ID='shroud',T=1085.,F=0.594 /
&RAMP ID='shroud',T=1225.,F=0.470 /
&RAMP ID='shroud',T=1380.,F=0.281 /
&RAMP ID='shroud',T=2000.,F=0.114 /
 
&VENT XB=-.30,-.30,-.075,0.075,-.075,0.075,SURF_ID='OPEN' /  
&VENT XB=0.30,0.30,-.075,0.075,-.075,0.075,SURF_ID='OPEN' / 

&DUMP DT_DEVC=10., DT_PL3D=10000. /

&PROP ID='IRSN_2', QUANTITY='CABLE TEMPERATURE', CABLE_MASS_PER_LENGTH=0.282, 
      CABLE_FAILURE_TEMPERATURE=400., CABLE_DIAMETER=0.014, CABLE_JACKET_THICKNESS=0.002 /

&PROP ID='TRAC_1', QUANTITY='CABLE TEMPERATURE', CABLE_MASS_PER_LENGTH=0.246, 
      CABLE_FAILURE_TEMPERATURE=400., CABLE_DIAMETER=0.0123, CABLE_JACKET_THICKNESS=0.003 /

&PROP ID='VTT_1', QUANTITY='CABLE TEMPERATURE', CABLE_MASS_PER_LENGTH=0.26, 
      CABLE_FAILURE_TEMPERATURE=400., CABLE_DIAMETER=0.013, CABLE_JACKET_THICKNESS=0.002 /

&PROP ID='GRS_1', QUANTITY='CABLE TEMPERATURE', CABLE_MASS_PER_LENGTH=0.273, 
      CABLE_FAILURE_TEMPERATURE=400., CABLE_DIAMETER=0.016, CABLE_JACKET_THICKNESS=0.002 /

&PROP ID='NRC_1', QUANTITY='CABLE TEMPERATURE', CABLE_MASS_PER_LENGTH=0.41, 
      CABLE_FAILURE_TEMPERATURE=400., CABLE_DIAMETER=0.015, CABLE_JACKET_THICKNESS=0.0015 /

&DEVC XYZ=0.00,0.00,0.225, IOR=-3, ID='Air Temp', QUANTITY='WALL TEMPERATURE' /
&DEVC XYZ=0.01,0.00,0.000, ID='IRSN_2', PROP_ID='IRSN_2', ORIENTATION=0,0,1 /
&DEVC XYZ=0.01,0.00,0.000, ID='TRAC_1', PROP_ID='TRAC_1', ORIENTATION=0,0,1 /
&DEVC XYZ=0.01,0.00,0.000, ID='VTT_1',  PROP_ID='VTT_1',  ORIENTATION=0,0,1 /
&DEVC XYZ=0.01,0.00,0.000, ID='GRS_1',  PROP_ID='GRS_1',  ORIENTATION=0,0,1 /
&DEVC XYZ=0.01,0.00,0.000, ID='NRC_1',  PROP_ID='NRC_1',  ORIENTATION=0,0,1 /


&TAIL /
