&HEAD CHID='TC_heating', TITLE='Testing transient TC model'  / 

&MESH IJK=20,20,20, XB=0,1,0,1,0,1 /

&TIME T_END=150.0 /

&MISC SURF_DEFAULT='WALL' /

&RADI TIME_STEP_INCREMENT=1, ANGLE_INCREMENT=1 /

&DUMP DT_DEVC=1.0 /

&SURF ID='WALL', TMP_FRONT=600., TAU_T=0., H_FIXED=0.0, EMISSIVITY=1. / 

&PROP ID='Acme TC', BEAD_H_FIXED=0. /
&DEVC ID='TC', XYZ=0.5,0.5,0.5, QUANTITY='THERMOCOUPLE', PROP_ID='Acme TC' /

&TAIL /
