&MESH IJK=16,16,16, XB=0.0,0.20,0.0,0.20,0.0,0.20, MULT_ID='mesh' /
&MULT ID='mesh', DX=0.20, DY=0.20, DZ=0.20, I_UPPER=3, J_UPPER=3, K_UPPER=3 /
