&HEAD CHID='blockaid0', TITLE='3x3 Couch Test Case'  /

&MESH IJK=80,80,60, XB=0.0, 8.0,0.0,8.0,0.0,6.0/

&TIME TWFIN=0. /

&VENT XB=0.0,0.0, 0.0,8.0, 0.0,6.0 SURF_ID='OPEN' /
&VENT XB=8.0,8.0, 0.0,8.0, 0.0,6.0 SURF_ID='OPEN' /
&VENT XB=0.0,8.0, 0.0,0.0, 0.0,6.0 SURF_ID='OPEN' /
&VENT XB=0.0,8.0, 8.0,8.0, 0.0,6.0 SURF_ID='OPEN' /
&VENT XB=0.0,8.0, 0.0,8.0, 6.0,6.0 SURF_ID='OPEN' /

&SHELL XB=0.0,3.0,0.0,3.0,0.0,3.0 DELTA=0.2 /

&TAIL /
