&HEAD CHID='Arch_demo', TITLE='Demo of Abaqus >> Matlab freeBoundary, created by Ibeam_demo.m' /
  
&MESH IJK=32,32,32, XB=-1.,1.,-1.,1.,0,1/
  
&TIME T_END=10./
  
&MISC IMMERSED_BOUNDARY_METHOD=1 /
  
&SURF ID='hot', COLOR='RED', CONVECTIVE_HEAT_FLUX=1000. / TMP_FRONT=1000., H_FIXED=10./
&SURF ID='cold', COLOR='BLUE'/
  
&VENT MB='XMIN', SURF_ID='OPEN'/
&VENT MB='XMAX', SURF_ID='OPEN'/
&VENT MB='YMIN', SURF_ID='OPEN'/
&VENT MB='YMAX', SURF_ID='OPEN'/
&VENT MB='ZMAX', SURF_ID='OPEN'/
VENT XB=-.2,.2,-.2,.2,0,0, SURF_ID='hot'/
  
&MATL ID='my solid', DENSITY=1000., CONDUCTIVITY=1., SPECIFIC_HEAT=1. /
  
&SLCF PBY=0, QUANTITY='TEMPERATURE', VECTOR=.TRUE. /
&SLCF PBX=0, QUANTITY='TEMPERATURE', VECTOR=.TRUE. /

&BNDE QUANTITY='GAS TEMPERATURE' /

&VERT X=-0.42,0.06,0 /
&VERT X=-0.42,0.01,0 /
&VERT X=0.42,0.01,0 /
&VERT X=0.42,0.06,0 /
&VERT X=-0.58,0.01,0 /
&VERT X=0.58,0.01,0 /
&VERT X=-0.6,-0.06,0 /
&VERT X=-0.58,-0.06,0 /
&VERT X=0.58,-0.06,0 /
&VERT X=0.6,-0.06,0 /
&VERT X=-0.58,-0.01,0 /
&VERT X=0.58,-0.01,0 /
&VERT X=-0.42,-0.01,0 /
&VERT X=0.42,-0.01,0 /
&VERT X=-0.42,-0.06,0 /
&VERT X=0.42,-0.06,0 /
&VERT X=-0.4,-0.06,0 /
&VERT X=0.4,-0.06,0 /
&VERT X=-0.4,0.06,0 /
&VERT X=0.4,0.06,0 /
&VERT X=-0.58,0.06,0 /
&VERT X=0.58,0.06,0 /
&VERT X=0.6,0.06,0 /
&VERT X=-0.6,0.06,0 /
&VERT X=-0.42,0.035,0 /
&VERT X=-0.41949,0.01,0.020608 /
&VERT X=-0.41798,0.01,0.041167 /
&VERT X=-0.41545,0.01,0.061627 /
&VERT X=-0.41193,0.01,0.081938 /
&VERT X=-0.40741,0.01,0.10205 /
&VERT X=-0.40191,0.01,0.12192 /
&VERT X=-0.39545,0.01,0.14149 /
&VERT X=-0.38803,0.01,0.16073 /
&VERT X=-0.37968,0.01,0.17957 /
&VERT X=-0.37041,0.01,0.19799 /
&VERT X=-0.36025,0.01,0.21592 /
&VERT X=-0.34922,0.01,0.23334 /
&VERT X=-0.33735,0.01,0.25019 /
&VERT X=-0.32466,0.01,0.26645 /
&VERT X=-0.3112,0.01,0.28205 /
&VERT X=-0.29698,0.01,0.29698 /
&VERT X=-0.28205,0.01,0.3112 /
&VERT X=-0.26645,0.01,0.32466 /
&VERT X=-0.25019,0.01,0.33735 /
&VERT X=-0.23334,0.01,0.34922 /
&VERT X=-0.21592,0.01,0.36025 /
&VERT X=-0.19799,0.01,0.37041 /
&VERT X=-0.17957,0.01,0.37968 /
&VERT X=-0.16073,0.01,0.38803 /
&VERT X=-0.14149,0.01,0.39545 /
&VERT X=-0.12192,0.01,0.40191 /
&VERT X=-0.10205,0.01,0.40741 /
&VERT X=-0.081938,0.01,0.41193 /
&VERT X=-0.061627,0.01,0.41545 /
&VERT X=-0.041167,0.01,0.41798 /
&VERT X=-0.020608,0.01,0.41949 /
&VERT X=0,0.01,0.42 /
&VERT X=0.020608,0.01,0.41949 /
&VERT X=0.041167,0.01,0.41798 /
&VERT X=0.061627,0.01,0.41545 /
&VERT X=0.081938,0.01,0.41193 /
&VERT X=0.10205,0.01,0.40741 /
&VERT X=0.12192,0.01,0.40191 /
&VERT X=0.14149,0.01,0.39545 /
&VERT X=0.16073,0.01,0.38803 /
&VERT X=0.17957,0.01,0.37968 /
&VERT X=0.19799,0.01,0.37041 /
&VERT X=0.21592,0.01,0.36025 /
&VERT X=0.23334,0.01,0.34922 /
&VERT X=0.25019,0.01,0.33735 /
&VERT X=0.26645,0.01,0.32466 /
&VERT X=0.28205,0.01,0.3112 /
&VERT X=0.29698,0.01,0.29698 /
&VERT X=0.3112,0.01,0.28205 /
&VERT X=0.32466,0.01,0.26645 /
&VERT X=0.33735,0.01,0.25019 /
&VERT X=0.34922,0.01,0.23334 /
&VERT X=0.36025,0.01,0.21592 /
&VERT X=0.37041,0.01,0.19799 /
&VERT X=0.37968,0.01,0.17957 /
&VERT X=0.38803,0.01,0.16073 /
&VERT X=0.39545,0.01,0.14149 /
&VERT X=0.40191,0.01,0.12192 /
&VERT X=0.40741,0.01,0.10205 /
&VERT X=0.41193,0.01,0.081938 /
&VERT X=0.41545,0.01,0.061627 /
&VERT X=0.41798,0.01,0.041167 /
&VERT X=0.41949,0.01,0.020608 /
&VERT X=0.42,0.035,0 /
&VERT X=0.41949,0.06,0.020608 /
&VERT X=0.41798,0.06,0.041167 /
&VERT X=0.41545,0.06,0.061627 /
&VERT X=0.41193,0.06,0.081938 /
&VERT X=0.40741,0.06,0.10205 /
&VERT X=0.40191,0.06,0.12192 /
&VERT X=0.39545,0.06,0.14149 /
&VERT X=0.38803,0.06,0.16073 /
&VERT X=0.37968,0.06,0.17957 /
&VERT X=0.37041,0.06,0.19799 /
&VERT X=0.36025,0.06,0.21592 /
&VERT X=0.34922,0.06,0.23334 /
&VERT X=0.33735,0.06,0.25019 /
&VERT X=0.32466,0.06,0.26645 /
&VERT X=0.3112,0.06,0.28205 /
&VERT X=0.29698,0.06,0.29698 /
&VERT X=0.28205,0.06,0.3112 /
&VERT X=0.26645,0.06,0.32466 /
&VERT X=0.25019,0.06,0.33735 /
&VERT X=0.23334,0.06,0.34922 /
&VERT X=0.21592,0.06,0.36025 /
&VERT X=0.19799,0.06,0.37041 /
&VERT X=0.17957,0.06,0.37968 /
&VERT X=0.16073,0.06,0.38803 /
&VERT X=0.14149,0.06,0.39545 /
&VERT X=0.12192,0.06,0.40191 /
&VERT X=0.10205,0.06,0.40741 /
&VERT X=0.081938,0.06,0.41193 /
&VERT X=0.061627,0.06,0.41545 /
&VERT X=0.041167,0.06,0.41798 /
&VERT X=0.020608,0.06,0.41949 /
&VERT X=0,0.06,0.42 /
&VERT X=-0.020608,0.06,0.41949 /
&VERT X=-0.041167,0.06,0.41798 /
&VERT X=-0.061627,0.06,0.41545 /
&VERT X=-0.081938,0.06,0.41193 /
&VERT X=-0.10205,0.06,0.40741 /
&VERT X=-0.12192,0.06,0.40191 /
&VERT X=-0.14149,0.06,0.39545 /
&VERT X=-0.16073,0.06,0.38803 /
&VERT X=-0.17957,0.06,0.37968 /
&VERT X=-0.19799,0.06,0.37041 /
&VERT X=-0.21592,0.06,0.36025 /
&VERT X=-0.23334,0.06,0.34922 /
&VERT X=-0.25019,0.06,0.33735 /
&VERT X=-0.26645,0.06,0.32466 /
&VERT X=-0.28205,0.06,0.3112 /
&VERT X=-0.29698,0.06,0.29698 /
&VERT X=-0.3112,0.06,0.28205 /
&VERT X=-0.32466,0.06,0.26645 /
&VERT X=-0.33735,0.06,0.25019 /
&VERT X=-0.34922,0.06,0.23334 /
&VERT X=-0.36025,0.06,0.21592 /
&VERT X=-0.37041,0.06,0.19799 /
&VERT X=-0.37968,0.06,0.17957 /
&VERT X=-0.38803,0.06,0.16073 /
&VERT X=-0.39545,0.06,0.14149 /
&VERT X=-0.40191,0.06,0.12192 /
&VERT X=-0.40741,0.06,0.10205 /
&VERT X=-0.41193,0.06,0.081938 /
&VERT X=-0.41545,0.06,0.061627 /
&VERT X=-0.41798,0.06,0.041167 /
&VERT X=-0.41949,0.06,0.020608 /
&VERT X=-0.44,0.01,0 /
&VERT X=-0.46,0.01,0 /
&VERT X=-0.48,0.01,0 /
&VERT X=-0.5,0.01,0 /
&VERT X=-0.52,0.01,0 /
&VERT X=-0.54,0.01,0 /
&VERT X=-0.56,0.01,0 /
&VERT X=-0.57965,0.01,0.020019 /
&VERT X=-0.57862,0.01,0.040015 /
&VERT X=-0.57689,0.01,0.059963 /
&VERT X=-0.57448,0.01,0.079839 /
&VERT X=-0.57138,0.01,0.09962 /
&VERT X=-0.5676,0.01,0.11928 /
&VERT X=-0.56315,0.01,0.1388 /
&VERT X=-0.55802,0.01,0.15816 /
&VERT X=-0.55223,0.01,0.17732 /
&VERT X=-0.54578,0.01,0.19628 /
&VERT X=-0.53868,0.01,0.215 /
&VERT X=-0.53094,0.01,0.23347 /
&VERT X=-0.52256,0.01,0.25165 /
&VERT X=-0.51356,0.01,0.26954 /
&VERT X=-0.50396,0.01,0.28711 /
&VERT X=-0.49374,0.01,0.30433 /
&VERT X=-0.48295,0.01,0.32119 /
&VERT X=-0.47157,0.01,0.33767 /
&VERT X=-0.45964,0.01,0.35374 /
&VERT X=-0.44715,0.01,0.3694 /
&VERT X=-0.43414,0.01,0.38461 /
&VERT X=-0.4206,0.01,0.39937 /
&VERT X=-0.40657,0.01,0.41365 /
&VERT X=-0.39205,0.01,0.42743 /
&VERT X=-0.37706,0.01,0.44071 /
&VERT X=-0.36162,0.01,0.45346 /
&VERT X=-0.34576,0.01,0.46567 /
&VERT X=-0.32948,0.01,0.47733 /
&VERT X=-0.31281,0.01,0.48842 /
&VERT X=-0.29576,0.01,0.49892 /
&VERT X=-0.27836,0.01,0.50884 /
&VERT X=-0.26063,0.01,0.51814 /
&VERT X=-0.2426,0.01,0.52683 /
&VERT X=-0.22427,0.01,0.53489 /
&VERT X=-0.20567,0.01,0.54231 /
&VERT X=-0.18683,0.01,0.54909 /
&VERT X=-0.16777,0.01,0.55521 /
&VERT X=-0.1485,0.01,0.56067 /
&VERT X=-0.12906,0.01,0.56546 /
&VERT X=-0.10947,0.01,0.56958 /
&VERT X=-0.089743,0.01,0.57301 /
&VERT X=-0.069911,0.01,0.57577 /
&VERT X=-0.049996,0.01,0.57784 /
&VERT X=-0.030022,0.01,0.57922 /
&VERT X=-0.010011,0.01,0.57991 /
&VERT X=0.010011,0.01,0.57991 /
&VERT X=0.030022,0.01,0.57922 /
&VERT X=0.049996,0.01,0.57784 /
&VERT X=0.069911,0.01,0.57577 /
&VERT X=0.089743,0.01,0.57301 /
&VERT X=0.10947,0.01,0.56958 /
&VERT X=0.12906,0.01,0.56546 /
&VERT X=0.1485,0.01,0.56067 /
&VERT X=0.16777,0.01,0.55521 /
&VERT X=0.18683,0.01,0.54909 /
&VERT X=0.20567,0.01,0.54231 /
&VERT X=0.22427,0.01,0.53489 /
&VERT X=0.2426,0.01,0.52683 /
&VERT X=0.26063,0.01,0.51814 /
&VERT X=0.27836,0.01,0.50884 /
&VERT X=0.29576,0.01,0.49892 /
&VERT X=0.31281,0.01,0.48842 /
&VERT X=0.32948,0.01,0.47733 /
&VERT X=0.34576,0.01,0.46567 /
&VERT X=0.36162,0.01,0.45346 /
&VERT X=0.37706,0.01,0.44071 /
&VERT X=0.39205,0.01,0.42743 /
&VERT X=0.40657,0.01,0.41365 /
&VERT X=0.4206,0.01,0.39937 /
&VERT X=0.43414,0.01,0.38461 /
&VERT X=0.44715,0.01,0.3694 /
&VERT X=0.45964,0.01,0.35374 /
&VERT X=0.47157,0.01,0.33767 /
&VERT X=0.48295,0.01,0.32119 /
&VERT X=0.49374,0.01,0.30433 /
&VERT X=0.50396,0.01,0.28711 /
&VERT X=0.51356,0.01,0.26954 /
&VERT X=0.52256,0.01,0.25165 /
&VERT X=0.53094,0.01,0.23347 /
&VERT X=0.53868,0.01,0.215 /
&VERT X=0.54578,0.01,0.19628 /
&VERT X=0.55223,0.01,0.17732 /
&VERT X=0.55802,0.01,0.15816 /
&VERT X=0.56315,0.01,0.1388 /
&VERT X=0.5676,0.01,0.11928 /
&VERT X=0.57138,0.01,0.09962 /
&VERT X=0.57448,0.01,0.079839 /
&VERT X=0.57689,0.01,0.059963 /
&VERT X=0.57862,0.01,0.040015 /
&VERT X=0.57965,0.01,0.020019 /
&VERT X=0.56,0.01,0 /
&VERT X=0.54,0.01,0 /
&VERT X=0.52,0.01,0 /
&VERT X=0.5,0.01,0 /
&VERT X=0.48,0.01,0 /
&VERT X=0.46,0.01,0 /
&VERT X=0.44,0.01,0 /
&VERT X=-0.57965,-0.06,0.020019 /
&VERT X=-0.57862,-0.06,0.040015 /
&VERT X=-0.57689,-0.06,0.059963 /
&VERT X=-0.57448,-0.06,0.079839 /
&VERT X=-0.57138,-0.06,0.09962 /
&VERT X=-0.5676,-0.06,0.11928 /
&VERT X=-0.56315,-0.06,0.1388 /
&VERT X=-0.55802,-0.06,0.15816 /
&VERT X=-0.55223,-0.06,0.17732 /
&VERT X=-0.54578,-0.06,0.19628 /
&VERT X=-0.53868,-0.06,0.215 /
&VERT X=-0.53094,-0.06,0.23347 /
&VERT X=-0.52256,-0.06,0.25165 /
&VERT X=-0.51356,-0.06,0.26954 /
&VERT X=-0.50396,-0.06,0.28711 /
&VERT X=-0.49374,-0.06,0.30433 /
&VERT X=-0.48295,-0.06,0.32119 /
&VERT X=-0.47157,-0.06,0.33767 /
&VERT X=-0.45964,-0.06,0.35374 /
&VERT X=-0.44715,-0.06,0.3694 /
&VERT X=-0.43414,-0.06,0.38461 /
&VERT X=-0.4206,-0.06,0.39937 /
&VERT X=-0.40657,-0.06,0.41365 /
&VERT X=-0.39205,-0.06,0.42743 /
&VERT X=-0.37706,-0.06,0.44071 /
&VERT X=-0.36162,-0.06,0.45346 /
&VERT X=-0.34576,-0.06,0.46567 /
&VERT X=-0.32948,-0.06,0.47733 /
&VERT X=-0.31281,-0.06,0.48842 /
&VERT X=-0.29576,-0.06,0.49892 /
&VERT X=-0.27836,-0.06,0.50884 /
&VERT X=-0.26063,-0.06,0.51814 /
&VERT X=-0.2426,-0.06,0.52683 /
&VERT X=-0.22427,-0.06,0.53489 /
&VERT X=-0.20567,-0.06,0.54231 /
&VERT X=-0.18683,-0.06,0.54909 /
&VERT X=-0.16777,-0.06,0.55521 /
&VERT X=-0.1485,-0.06,0.56067 /
&VERT X=-0.12906,-0.06,0.56546 /
&VERT X=-0.10947,-0.06,0.56958 /
&VERT X=-0.089743,-0.06,0.57301 /
&VERT X=-0.069911,-0.06,0.57577 /
&VERT X=-0.049996,-0.06,0.57784 /
&VERT X=-0.030022,-0.06,0.57922 /
&VERT X=-0.010011,-0.06,0.57991 /
&VERT X=0.010011,-0.06,0.57991 /
&VERT X=0.030022,-0.06,0.57922 /
&VERT X=0.049996,-0.06,0.57784 /
&VERT X=0.069911,-0.06,0.57577 /
&VERT X=0.089743,-0.06,0.57301 /
&VERT X=0.10947,-0.06,0.56958 /
&VERT X=0.12906,-0.06,0.56546 /
&VERT X=0.1485,-0.06,0.56067 /
&VERT X=0.16777,-0.06,0.55521 /
&VERT X=0.18683,-0.06,0.54909 /
&VERT X=0.20567,-0.06,0.54231 /
&VERT X=0.22427,-0.06,0.53489 /
&VERT X=0.2426,-0.06,0.52683 /
&VERT X=0.26063,-0.06,0.51814 /
&VERT X=0.27836,-0.06,0.50884 /
&VERT X=0.29576,-0.06,0.49892 /
&VERT X=0.31281,-0.06,0.48842 /
&VERT X=0.32948,-0.06,0.47733 /
&VERT X=0.34576,-0.06,0.46567 /
&VERT X=0.36162,-0.06,0.45346 /
&VERT X=0.37706,-0.06,0.44071 /
&VERT X=0.39205,-0.06,0.42743 /
&VERT X=0.40657,-0.06,0.41365 /
&VERT X=0.4206,-0.06,0.39937 /
&VERT X=0.43414,-0.06,0.38461 /
&VERT X=0.44715,-0.06,0.3694 /
&VERT X=0.45964,-0.06,0.35374 /
&VERT X=0.47157,-0.06,0.33767 /
&VERT X=0.48295,-0.06,0.32119 /
&VERT X=0.49374,-0.06,0.30433 /
&VERT X=0.50396,-0.06,0.28711 /
&VERT X=0.51356,-0.06,0.26954 /
&VERT X=0.52256,-0.06,0.25165 /
&VERT X=0.53094,-0.06,0.23347 /
&VERT X=0.53868,-0.06,0.215 /
&VERT X=0.54578,-0.06,0.19628 /
&VERT X=0.55223,-0.06,0.17732 /
&VERT X=0.55802,-0.06,0.15816 /
&VERT X=0.56315,-0.06,0.1388 /
&VERT X=0.5676,-0.06,0.11928 /
&VERT X=0.57138,-0.06,0.09962 /
&VERT X=0.57448,-0.06,0.079839 /
&VERT X=0.57689,-0.06,0.059963 /
&VERT X=0.57862,-0.06,0.040015 /
&VERT X=0.57965,-0.06,0.020019 /
&VERT X=0.59964,-0.06,0.02071 /
&VERT X=0.59857,-0.06,0.041395 /
&VERT X=0.59678,-0.06,0.06203 /
&VERT X=0.59429,-0.06,0.082592 /
&VERT X=0.59108,-0.06,0.10306 /
&VERT X=0.58717,-0.06,0.1234 /
&VERT X=0.58257,-0.06,0.14359 /
&VERT X=0.57726,-0.06,0.16361 /
&VERT X=0.57127,-0.06,0.18344 /
&VERT X=0.5646,-0.06,0.20305 /
&VERT X=0.55725,-0.06,0.22241 /
&VERT X=0.54924,-0.06,0.24152 /
&VERT X=0.54058,-0.06,0.26033 /
&VERT X=0.53127,-0.06,0.27883 /
&VERT X=0.52133,-0.06,0.29701 /
&VERT X=0.51077,-0.06,0.31482 /
&VERT X=0.4996,-0.06,0.33226 /
&VERT X=0.48783,-0.06,0.34931 /
&VERT X=0.47549,-0.06,0.36594 /
&VERT X=0.46257,-0.06,0.38214 /
&VERT X=0.44911,-0.06,0.39787 /
&VERT X=0.43511,-0.06,0.41314 /
&VERT X=0.42059,-0.06,0.42791 /
&VERT X=0.40557,-0.06,0.44217 /
&VERT X=0.39006,-0.06,0.45591 /
&VERT X=0.37409,-0.06,0.4691 /
&VERT X=0.35768,-0.06,0.48173 /
&VERT X=0.34084,-0.06,0.49379 /
&VERT X=0.32359,-0.06,0.50526 /
&VERT X=0.30596,-0.06,0.51613 /
&VERT X=0.28796,-0.06,0.52638 /
&VERT X=0.26962,-0.06,0.53601 /
&VERT X=0.25096,-0.06,0.54499 /
&VERT X=0.232,-0.06,0.55333 /
&VERT X=0.21276,-0.06,0.56101 /
&VERT X=0.19327,-0.06,0.56802 /
&VERT X=0.17355,-0.06,0.57435 /
&VERT X=0.15362,-0.06,0.58 /
&VERT X=0.13351,-0.06,0.58496 /
&VERT X=0.11324,-0.06,0.58922 /
&VERT X=0.092838,-0.06,0.59277 /
&VERT X=0.072322,-0.06,0.59563 /
&VERT X=0.05172,-0.06,0.59777 /
&VERT X=0.031057,-0.06,0.5992 /
&VERT X=0.010356,-0.06,0.59991 /
&VERT X=-0.010356,-0.06,0.59991 /
&VERT X=-0.031057,-0.06,0.5992 /
&VERT X=-0.05172,-0.06,0.59777 /
&VERT X=-0.072322,-0.06,0.59563 /
&VERT X=-0.092838,-0.06,0.59277 /
&VERT X=-0.11324,-0.06,0.58922 /
&VERT X=-0.13351,-0.06,0.58496 /
&VERT X=-0.15362,-0.06,0.58 /
&VERT X=-0.17355,-0.06,0.57435 /
&VERT X=-0.19327,-0.06,0.56802 /
&VERT X=-0.21276,-0.06,0.56101 /
&VERT X=-0.232,-0.06,0.55333 /
&VERT X=-0.25096,-0.06,0.54499 /
&VERT X=-0.26962,-0.06,0.53601 /
&VERT X=-0.28796,-0.06,0.52638 /
&VERT X=-0.30596,-0.06,0.51613 /
&VERT X=-0.32359,-0.06,0.50526 /
&VERT X=-0.34084,-0.06,0.49379 /
&VERT X=-0.35768,-0.06,0.48173 /
&VERT X=-0.37409,-0.06,0.4691 /
&VERT X=-0.39006,-0.06,0.45591 /
&VERT X=-0.40557,-0.06,0.44217 /
&VERT X=-0.42059,-0.06,0.42791 /
&VERT X=-0.43511,-0.06,0.41314 /
&VERT X=-0.44911,-0.06,0.39787 /
&VERT X=-0.46257,-0.06,0.38214 /
&VERT X=-0.47549,-0.06,0.36594 /
&VERT X=-0.48783,-0.06,0.34931 /
&VERT X=-0.4996,-0.06,0.33226 /
&VERT X=-0.51077,-0.06,0.31482 /
&VERT X=-0.52133,-0.06,0.29701 /
&VERT X=-0.53127,-0.06,0.27883 /
&VERT X=-0.54058,-0.06,0.26033 /
&VERT X=-0.54924,-0.06,0.24152 /
&VERT X=-0.55725,-0.06,0.22241 /
&VERT X=-0.5646,-0.06,0.20305 /
&VERT X=-0.57127,-0.06,0.18344 /
&VERT X=-0.57726,-0.06,0.16361 /
&VERT X=-0.58257,-0.06,0.14359 /
&VERT X=-0.58717,-0.06,0.1234 /
&VERT X=-0.59108,-0.06,0.10306 /
&VERT X=-0.59429,-0.06,0.082592 /
&VERT X=-0.59678,-0.06,0.06203 /
&VERT X=-0.59857,-0.06,0.041395 /
&VERT X=-0.59964,-0.06,0.02071 /
&VERT X=-0.58,-0.035,0 /
&VERT X=-0.57965,-0.01,0.020019 /
&VERT X=-0.57862,-0.01,0.040015 /
&VERT X=-0.57689,-0.01,0.059963 /
&VERT X=-0.57448,-0.01,0.079839 /
&VERT X=-0.57138,-0.01,0.09962 /
&VERT X=-0.5676,-0.01,0.11928 /
&VERT X=-0.56315,-0.01,0.1388 /
&VERT X=-0.55802,-0.01,0.15816 /
&VERT X=-0.55223,-0.01,0.17732 /
&VERT X=-0.54578,-0.01,0.19628 /
&VERT X=-0.53868,-0.01,0.215 /
&VERT X=-0.53094,-0.01,0.23347 /
&VERT X=-0.52256,-0.01,0.25165 /
&VERT X=-0.51356,-0.01,0.26954 /
&VERT X=-0.50396,-0.01,0.28711 /
&VERT X=-0.49374,-0.01,0.30433 /
&VERT X=-0.48295,-0.01,0.32119 /
&VERT X=-0.47157,-0.01,0.33767 /
&VERT X=-0.45964,-0.01,0.35374 /
&VERT X=-0.44715,-0.01,0.3694 /
&VERT X=-0.43414,-0.01,0.38461 /
&VERT X=-0.4206,-0.01,0.39937 /
&VERT X=-0.40657,-0.01,0.41365 /
&VERT X=-0.39205,-0.01,0.42743 /
&VERT X=-0.37706,-0.01,0.44071 /
&VERT X=-0.36162,-0.01,0.45346 /
&VERT X=-0.34576,-0.01,0.46567 /
&VERT X=-0.32948,-0.01,0.47733 /
&VERT X=-0.31281,-0.01,0.48842 /
&VERT X=-0.29576,-0.01,0.49892 /
&VERT X=-0.27836,-0.01,0.50884 /
&VERT X=-0.26063,-0.01,0.51814 /
&VERT X=-0.2426,-0.01,0.52683 /
&VERT X=-0.22427,-0.01,0.53489 /
&VERT X=-0.20567,-0.01,0.54231 /
&VERT X=-0.18683,-0.01,0.54909 /
&VERT X=-0.16777,-0.01,0.55521 /
&VERT X=-0.1485,-0.01,0.56067 /
&VERT X=-0.12906,-0.01,0.56546 /
&VERT X=-0.10947,-0.01,0.56958 /
&VERT X=-0.089743,-0.01,0.57301 /
&VERT X=-0.069911,-0.01,0.57577 /
&VERT X=-0.049996,-0.01,0.57784 /
&VERT X=-0.030022,-0.01,0.57922 /
&VERT X=-0.010011,-0.01,0.57991 /
&VERT X=0.010011,-0.01,0.57991 /
&VERT X=0.030022,-0.01,0.57922 /
&VERT X=0.049996,-0.01,0.57784 /
&VERT X=0.069911,-0.01,0.57577 /
&VERT X=0.089743,-0.01,0.57301 /
&VERT X=0.10947,-0.01,0.56958 /
&VERT X=0.12906,-0.01,0.56546 /
&VERT X=0.1485,-0.01,0.56067 /
&VERT X=0.16777,-0.01,0.55521 /
&VERT X=0.18683,-0.01,0.54909 /
&VERT X=0.20567,-0.01,0.54231 /
&VERT X=0.22427,-0.01,0.53489 /
&VERT X=0.2426,-0.01,0.52683 /
&VERT X=0.26063,-0.01,0.51814 /
&VERT X=0.27836,-0.01,0.50884 /
&VERT X=0.29576,-0.01,0.49892 /
&VERT X=0.31281,-0.01,0.48842 /
&VERT X=0.32948,-0.01,0.47733 /
&VERT X=0.34576,-0.01,0.46567 /
&VERT X=0.36162,-0.01,0.45346 /
&VERT X=0.37706,-0.01,0.44071 /
&VERT X=0.39205,-0.01,0.42743 /
&VERT X=0.40657,-0.01,0.41365 /
&VERT X=0.4206,-0.01,0.39937 /
&VERT X=0.43414,-0.01,0.38461 /
&VERT X=0.44715,-0.01,0.3694 /
&VERT X=0.45964,-0.01,0.35374 /
&VERT X=0.47157,-0.01,0.33767 /
&VERT X=0.48295,-0.01,0.32119 /
&VERT X=0.49374,-0.01,0.30433 /
&VERT X=0.50396,-0.01,0.28711 /
&VERT X=0.51356,-0.01,0.26954 /
&VERT X=0.52256,-0.01,0.25165 /
&VERT X=0.53094,-0.01,0.23347 /
&VERT X=0.53868,-0.01,0.215 /
&VERT X=0.54578,-0.01,0.19628 /
&VERT X=0.55223,-0.01,0.17732 /
&VERT X=0.55802,-0.01,0.15816 /
&VERT X=0.56315,-0.01,0.1388 /
&VERT X=0.5676,-0.01,0.11928 /
&VERT X=0.57138,-0.01,0.09962 /
&VERT X=0.57448,-0.01,0.079839 /
&VERT X=0.57689,-0.01,0.059963 /
&VERT X=0.57862,-0.01,0.040015 /
&VERT X=0.57965,-0.01,0.020019 /
&VERT X=0.58,-0.035,0 /
&VERT X=-0.56,-0.01,0 /
&VERT X=-0.54,-0.01,0 /
&VERT X=-0.52,-0.01,0 /
&VERT X=-0.5,-0.01,0 /
&VERT X=-0.48,-0.01,0 /
&VERT X=-0.46,-0.01,0 /
&VERT X=-0.44,-0.01,0 /
&VERT X=-0.41949,-0.01,0.020608 /
&VERT X=-0.41798,-0.01,0.041167 /
&VERT X=-0.41545,-0.01,0.061627 /
&VERT X=-0.41193,-0.01,0.081938 /
&VERT X=-0.40741,-0.01,0.10205 /
&VERT X=-0.40191,-0.01,0.12192 /
&VERT X=-0.39545,-0.01,0.14149 /
&VERT X=-0.38803,-0.01,0.16073 /
&VERT X=-0.37968,-0.01,0.17957 /
&VERT X=-0.37041,-0.01,0.19799 /
&VERT X=-0.36025,-0.01,0.21592 /
&VERT X=-0.34922,-0.01,0.23334 /
&VERT X=-0.33735,-0.01,0.25019 /
&VERT X=-0.32466,-0.01,0.26645 /
&VERT X=-0.3112,-0.01,0.28205 /
&VERT X=-0.29698,-0.01,0.29698 /
&VERT X=-0.28205,-0.01,0.3112 /
&VERT X=-0.26645,-0.01,0.32466 /
&VERT X=-0.25019,-0.01,0.33735 /
&VERT X=-0.23334,-0.01,0.34922 /
&VERT X=-0.21592,-0.01,0.36025 /
&VERT X=-0.19799,-0.01,0.37041 /
&VERT X=-0.17957,-0.01,0.37968 /
&VERT X=-0.16073,-0.01,0.38803 /
&VERT X=-0.14149,-0.01,0.39545 /
&VERT X=-0.12192,-0.01,0.40191 /
&VERT X=-0.10205,-0.01,0.40741 /
&VERT X=-0.081938,-0.01,0.41193 /
&VERT X=-0.061627,-0.01,0.41545 /
&VERT X=-0.041167,-0.01,0.41798 /
&VERT X=-0.020608,-0.01,0.41949 /
&VERT X=0,-0.01,0.42 /
&VERT X=0.020608,-0.01,0.41949 /
&VERT X=0.041167,-0.01,0.41798 /
&VERT X=0.061627,-0.01,0.41545 /
&VERT X=0.081938,-0.01,0.41193 /
&VERT X=0.10205,-0.01,0.40741 /
&VERT X=0.12192,-0.01,0.40191 /
&VERT X=0.14149,-0.01,0.39545 /
&VERT X=0.16073,-0.01,0.38803 /
&VERT X=0.17957,-0.01,0.37968 /
&VERT X=0.19799,-0.01,0.37041 /
&VERT X=0.21592,-0.01,0.36025 /
&VERT X=0.23334,-0.01,0.34922 /
&VERT X=0.25019,-0.01,0.33735 /
&VERT X=0.26645,-0.01,0.32466 /
&VERT X=0.28205,-0.01,0.3112 /
&VERT X=0.29698,-0.01,0.29698 /
&VERT X=0.3112,-0.01,0.28205 /
&VERT X=0.32466,-0.01,0.26645 /
&VERT X=0.33735,-0.01,0.25019 /
&VERT X=0.34922,-0.01,0.23334 /
&VERT X=0.36025,-0.01,0.21592 /
&VERT X=0.37041,-0.01,0.19799 /
&VERT X=0.37968,-0.01,0.17957 /
&VERT X=0.38803,-0.01,0.16073 /
&VERT X=0.39545,-0.01,0.14149 /
&VERT X=0.40191,-0.01,0.12192 /
&VERT X=0.40741,-0.01,0.10205 /
&VERT X=0.41193,-0.01,0.081938 /
&VERT X=0.41545,-0.01,0.061627 /
&VERT X=0.41798,-0.01,0.041167 /
&VERT X=0.41949,-0.01,0.020608 /
&VERT X=0.44,-0.01,0 /
&VERT X=0.46,-0.01,0 /
&VERT X=0.48,-0.01,0 /
&VERT X=0.5,-0.01,0 /
&VERT X=0.52,-0.01,0 /
&VERT X=0.54,-0.01,0 /
&VERT X=0.56,-0.01,0 /
&VERT X=-0.42,-0.035,0 /
&VERT X=-0.41949,-0.06,0.020608 /
&VERT X=-0.41798,-0.06,0.041167 /
&VERT X=-0.41545,-0.06,0.061627 /
&VERT X=-0.41193,-0.06,0.081938 /
&VERT X=-0.40741,-0.06,0.10205 /
&VERT X=-0.40191,-0.06,0.12192 /
&VERT X=-0.39545,-0.06,0.14149 /
&VERT X=-0.38803,-0.06,0.16073 /
&VERT X=-0.37968,-0.06,0.17957 /
&VERT X=-0.37041,-0.06,0.19799 /
&VERT X=-0.36025,-0.06,0.21592 /
&VERT X=-0.34922,-0.06,0.23334 /
&VERT X=-0.33735,-0.06,0.25019 /
&VERT X=-0.32466,-0.06,0.26645 /
&VERT X=-0.3112,-0.06,0.28205 /
&VERT X=-0.29698,-0.06,0.29698 /
&VERT X=-0.28205,-0.06,0.3112 /
&VERT X=-0.26645,-0.06,0.32466 /
&VERT X=-0.25019,-0.06,0.33735 /
&VERT X=-0.23334,-0.06,0.34922 /
&VERT X=-0.21592,-0.06,0.36025 /
&VERT X=-0.19799,-0.06,0.37041 /
&VERT X=-0.17957,-0.06,0.37968 /
&VERT X=-0.16073,-0.06,0.38803 /
&VERT X=-0.14149,-0.06,0.39545 /
&VERT X=-0.12192,-0.06,0.40191 /
&VERT X=-0.10205,-0.06,0.40741 /
&VERT X=-0.081938,-0.06,0.41193 /
&VERT X=-0.061627,-0.06,0.41545 /
&VERT X=-0.041167,-0.06,0.41798 /
&VERT X=-0.020608,-0.06,0.41949 /
&VERT X=0,-0.06,0.42 /
&VERT X=0.020608,-0.06,0.41949 /
&VERT X=0.041167,-0.06,0.41798 /
&VERT X=0.061627,-0.06,0.41545 /
&VERT X=0.081938,-0.06,0.41193 /
&VERT X=0.10205,-0.06,0.40741 /
&VERT X=0.12192,-0.06,0.40191 /
&VERT X=0.14149,-0.06,0.39545 /
&VERT X=0.16073,-0.06,0.38803 /
&VERT X=0.17957,-0.06,0.37968 /
&VERT X=0.19799,-0.06,0.37041 /
&VERT X=0.21592,-0.06,0.36025 /
&VERT X=0.23334,-0.06,0.34922 /
&VERT X=0.25019,-0.06,0.33735 /
&VERT X=0.26645,-0.06,0.32466 /
&VERT X=0.28205,-0.06,0.3112 /
&VERT X=0.29698,-0.06,0.29698 /
&VERT X=0.3112,-0.06,0.28205 /
&VERT X=0.32466,-0.06,0.26645 /
&VERT X=0.33735,-0.06,0.25019 /
&VERT X=0.34922,-0.06,0.23334 /
&VERT X=0.36025,-0.06,0.21592 /
&VERT X=0.37041,-0.06,0.19799 /
&VERT X=0.37968,-0.06,0.17957 /
&VERT X=0.38803,-0.06,0.16073 /
&VERT X=0.39545,-0.06,0.14149 /
&VERT X=0.40191,-0.06,0.12192 /
&VERT X=0.40741,-0.06,0.10205 /
&VERT X=0.41193,-0.06,0.081938 /
&VERT X=0.41545,-0.06,0.061627 /
&VERT X=0.41798,-0.06,0.041167 /
&VERT X=0.41949,-0.06,0.020608 /
&VERT X=0.42,-0.035,0 /
&VERT X=-0.39952,-0.06,0.019627 /
&VERT X=-0.39807,-0.06,0.039207 /
&VERT X=-0.39567,-0.06,0.058692 /
&VERT X=-0.39231,-0.06,0.078036 /
&VERT X=-0.38801,-0.06,0.097192 /
&VERT X=-0.38278,-0.06,0.11611 /
&VERT X=-0.37662,-0.06,0.13476 /
&VERT X=-0.36955,-0.06,0.15307 /
&VERT X=-0.3616,-0.06,0.17102 /
&VERT X=-0.35277,-0.06,0.18856 /
&VERT X=-0.34309,-0.06,0.20564 /
&VERT X=-0.33259,-0.06,0.22223 /
&VERT X=-0.32128,-0.06,0.23828 /
&VERT X=-0.3092,-0.06,0.25376 /
&VERT X=-0.29638,-0.06,0.26862 /
&VERT X=-0.28284,-0.06,0.28284 /
&VERT X=-0.26862,-0.06,0.29638 /
&VERT X=-0.25376,-0.06,0.3092 /
&VERT X=-0.23828,-0.06,0.32128 /
&VERT X=-0.22223,-0.06,0.33259 /
&VERT X=-0.20564,-0.06,0.34309 /
&VERT X=-0.18856,-0.06,0.35277 /
&VERT X=-0.17102,-0.06,0.3616 /
&VERT X=-0.15307,-0.06,0.36955 /
&VERT X=-0.13476,-0.06,0.37662 /
&VERT X=-0.11611,-0.06,0.38278 /
&VERT X=-0.097192,-0.06,0.38801 /
&VERT X=-0.078036,-0.06,0.39231 /
&VERT X=-0.058692,-0.06,0.39567 /
&VERT X=-0.039207,-0.06,0.39807 /
&VERT X=-0.019627,-0.06,0.39952 /
&VERT X=0,-0.06,0.4 /
&VERT X=0.019627,-0.06,0.39952 /
&VERT X=0.039207,-0.06,0.39807 /
&VERT X=0.058692,-0.06,0.39567 /
&VERT X=0.078036,-0.06,0.39231 /
&VERT X=0.097192,-0.06,0.38801 /
&VERT X=0.11611,-0.06,0.38278 /
&VERT X=0.13476,-0.06,0.37662 /
&VERT X=0.15307,-0.06,0.36955 /
&VERT X=0.17102,-0.06,0.3616 /
&VERT X=0.18856,-0.06,0.35277 /
&VERT X=0.20564,-0.06,0.34309 /
&VERT X=0.22223,-0.06,0.33259 /
&VERT X=0.23828,-0.06,0.32128 /
&VERT X=0.25376,-0.06,0.3092 /
&VERT X=0.26862,-0.06,0.29638 /
&VERT X=0.28284,-0.06,0.28284 /
&VERT X=0.29638,-0.06,0.26862 /
&VERT X=0.3092,-0.06,0.25376 /
&VERT X=0.32128,-0.06,0.23828 /
&VERT X=0.33259,-0.06,0.22223 /
&VERT X=0.34309,-0.06,0.20564 /
&VERT X=0.35277,-0.06,0.18856 /
&VERT X=0.3616,-0.06,0.17102 /
&VERT X=0.36955,-0.06,0.15307 /
&VERT X=0.37662,-0.06,0.13476 /
&VERT X=0.38278,-0.06,0.11611 /
&VERT X=0.38801,-0.06,0.097192 /
&VERT X=0.39231,-0.06,0.078036 /
&VERT X=0.39567,-0.06,0.058692 /
&VERT X=0.39807,-0.06,0.039207 /
&VERT X=0.39952,-0.06,0.019627 /
&VERT X=-0.4,-0.04,0 /
&VERT X=-0.4,-0.02,0 /
&VERT X=-0.4,0,0 /
&VERT X=-0.4,0.02,0 /
&VERT X=-0.4,0.04,0 /
&VERT X=-0.39952,0.06,0.019627 /
&VERT X=-0.39807,0.06,0.039207 /
&VERT X=-0.39567,0.06,0.058692 /
&VERT X=-0.39231,0.06,0.078036 /
&VERT X=-0.38801,0.06,0.097192 /
&VERT X=-0.38278,0.06,0.11611 /
&VERT X=-0.37662,0.06,0.13476 /
&VERT X=-0.36955,0.06,0.15307 /
&VERT X=-0.3616,0.06,0.17102 /
&VERT X=-0.35277,0.06,0.18856 /
&VERT X=-0.34309,0.06,0.20564 /
&VERT X=-0.33259,0.06,0.22223 /
&VERT X=-0.32128,0.06,0.23828 /
&VERT X=-0.3092,0.06,0.25376 /
&VERT X=-0.29638,0.06,0.26862 /
&VERT X=-0.28284,0.06,0.28284 /
&VERT X=-0.26862,0.06,0.29638 /
&VERT X=-0.25376,0.06,0.3092 /
&VERT X=-0.23828,0.06,0.32128 /
&VERT X=-0.22223,0.06,0.33259 /
&VERT X=-0.20564,0.06,0.34309 /
&VERT X=-0.18856,0.06,0.35277 /
&VERT X=-0.17102,0.06,0.3616 /
&VERT X=-0.15307,0.06,0.36955 /
&VERT X=-0.13476,0.06,0.37662 /
&VERT X=-0.11611,0.06,0.38278 /
&VERT X=-0.097192,0.06,0.38801 /
&VERT X=-0.078036,0.06,0.39231 /
&VERT X=-0.058692,0.06,0.39567 /
&VERT X=-0.039207,0.06,0.39807 /
&VERT X=-0.019627,0.06,0.39952 /
&VERT X=0,0.06,0.4 /
&VERT X=0.019627,0.06,0.39952 /
&VERT X=0.039207,0.06,0.39807 /
&VERT X=0.058692,0.06,0.39567 /
&VERT X=0.078036,0.06,0.39231 /
&VERT X=0.097192,0.06,0.38801 /
&VERT X=0.11611,0.06,0.38278 /
&VERT X=0.13476,0.06,0.37662 /
&VERT X=0.15307,0.06,0.36955 /
&VERT X=0.17102,0.06,0.3616 /
&VERT X=0.18856,0.06,0.35277 /
&VERT X=0.20564,0.06,0.34309 /
&VERT X=0.22223,0.06,0.33259 /
&VERT X=0.23828,0.06,0.32128 /
&VERT X=0.25376,0.06,0.3092 /
&VERT X=0.26862,0.06,0.29638 /
&VERT X=0.28284,0.06,0.28284 /
&VERT X=0.29638,0.06,0.26862 /
&VERT X=0.3092,0.06,0.25376 /
&VERT X=0.32128,0.06,0.23828 /
&VERT X=0.33259,0.06,0.22223 /
&VERT X=0.34309,0.06,0.20564 /
&VERT X=0.35277,0.06,0.18856 /
&VERT X=0.3616,0.06,0.17102 /
&VERT X=0.36955,0.06,0.15307 /
&VERT X=0.37662,0.06,0.13476 /
&VERT X=0.38278,0.06,0.11611 /
&VERT X=0.38801,0.06,0.097192 /
&VERT X=0.39231,0.06,0.078036 /
&VERT X=0.39567,0.06,0.058692 /
&VERT X=0.39807,0.06,0.039207 /
&VERT X=0.39952,0.06,0.019627 /
&VERT X=0.4,0.04,0 /
&VERT X=0.4,0.02,0 /
&VERT X=0.4,0,0 /
&VERT X=0.4,-0.02,0 /
&VERT X=0.4,-0.04,0 /
&VERT X=-0.58,0.035,0 /
&VERT X=-0.57965,0.06,0.020019 /
&VERT X=-0.57862,0.06,0.040015 /
&VERT X=-0.57689,0.06,0.059963 /
&VERT X=-0.57448,0.06,0.079839 /
&VERT X=-0.57138,0.06,0.09962 /
&VERT X=-0.5676,0.06,0.11928 /
&VERT X=-0.56315,0.06,0.1388 /
&VERT X=-0.55802,0.06,0.15816 /
&VERT X=-0.55223,0.06,0.17732 /
&VERT X=-0.54578,0.06,0.19628 /
&VERT X=-0.53868,0.06,0.215 /
&VERT X=-0.53094,0.06,0.23347 /
&VERT X=-0.52256,0.06,0.25165 /
&VERT X=-0.51356,0.06,0.26954 /
&VERT X=-0.50396,0.06,0.28711 /
&VERT X=-0.49374,0.06,0.30433 /
&VERT X=-0.48295,0.06,0.32119 /
&VERT X=-0.47157,0.06,0.33767 /
&VERT X=-0.45964,0.06,0.35374 /
&VERT X=-0.44715,0.06,0.3694 /
&VERT X=-0.43414,0.06,0.38461 /
&VERT X=-0.4206,0.06,0.39937 /
&VERT X=-0.40657,0.06,0.41365 /
&VERT X=-0.39205,0.06,0.42743 /
&VERT X=-0.37706,0.06,0.44071 /
&VERT X=-0.36162,0.06,0.45346 /
&VERT X=-0.34576,0.06,0.46567 /
&VERT X=-0.32948,0.06,0.47733 /
&VERT X=-0.31281,0.06,0.48842 /
&VERT X=-0.29576,0.06,0.49892 /
&VERT X=-0.27836,0.06,0.50884 /
&VERT X=-0.26063,0.06,0.51814 /
&VERT X=-0.2426,0.06,0.52683 /
&VERT X=-0.22427,0.06,0.53489 /
&VERT X=-0.20567,0.06,0.54231 /
&VERT X=-0.18683,0.06,0.54909 /
&VERT X=-0.16777,0.06,0.55521 /
&VERT X=-0.1485,0.06,0.56067 /
&VERT X=-0.12906,0.06,0.56546 /
&VERT X=-0.10947,0.06,0.56958 /
&VERT X=-0.089743,0.06,0.57301 /
&VERT X=-0.069911,0.06,0.57577 /
&VERT X=-0.049996,0.06,0.57784 /
&VERT X=-0.030022,0.06,0.57922 /
&VERT X=-0.010011,0.06,0.57991 /
&VERT X=0.010011,0.06,0.57991 /
&VERT X=0.030022,0.06,0.57922 /
&VERT X=0.049996,0.06,0.57784 /
&VERT X=0.069911,0.06,0.57577 /
&VERT X=0.089743,0.06,0.57301 /
&VERT X=0.10947,0.06,0.56958 /
&VERT X=0.12906,0.06,0.56546 /
&VERT X=0.1485,0.06,0.56067 /
&VERT X=0.16777,0.06,0.55521 /
&VERT X=0.18683,0.06,0.54909 /
&VERT X=0.20567,0.06,0.54231 /
&VERT X=0.22427,0.06,0.53489 /
&VERT X=0.2426,0.06,0.52683 /
&VERT X=0.26063,0.06,0.51814 /
&VERT X=0.27836,0.06,0.50884 /
&VERT X=0.29576,0.06,0.49892 /
&VERT X=0.31281,0.06,0.48842 /
&VERT X=0.32948,0.06,0.47733 /
&VERT X=0.34576,0.06,0.46567 /
&VERT X=0.36162,0.06,0.45346 /
&VERT X=0.37706,0.06,0.44071 /
&VERT X=0.39205,0.06,0.42743 /
&VERT X=0.40657,0.06,0.41365 /
&VERT X=0.4206,0.06,0.39937 /
&VERT X=0.43414,0.06,0.38461 /
&VERT X=0.44715,0.06,0.3694 /
&VERT X=0.45964,0.06,0.35374 /
&VERT X=0.47157,0.06,0.33767 /
&VERT X=0.48295,0.06,0.32119 /
&VERT X=0.49374,0.06,0.30433 /
&VERT X=0.50396,0.06,0.28711 /
&VERT X=0.51356,0.06,0.26954 /
&VERT X=0.52256,0.06,0.25165 /
&VERT X=0.53094,0.06,0.23347 /
&VERT X=0.53868,0.06,0.215 /
&VERT X=0.54578,0.06,0.19628 /
&VERT X=0.55223,0.06,0.17732 /
&VERT X=0.55802,0.06,0.15816 /
&VERT X=0.56315,0.06,0.1388 /
&VERT X=0.5676,0.06,0.11928 /
&VERT X=0.57138,0.06,0.09962 /
&VERT X=0.57448,0.06,0.079839 /
&VERT X=0.57689,0.06,0.059963 /
&VERT X=0.57862,0.06,0.040015 /
&VERT X=0.57965,0.06,0.020019 /
&VERT X=0.58,0.035,0 /
&VERT X=0.6,0.04,0 /
&VERT X=0.6,0.02,0 /
&VERT X=0.6,0,0 /
&VERT X=0.6,-0.02,0 /
&VERT X=0.6,-0.04,0 /
&VERT X=-0.6,0.04,0 /
&VERT X=-0.6,0.02,0 /
&VERT X=-0.6,0,0 /
&VERT X=-0.6,-0.02,0 /
&VERT X=-0.6,-0.04,0 /
&VERT X=0.59964,0.06,0.02071 /
&VERT X=0.59857,0.06,0.041395 /
&VERT X=0.59678,0.06,0.06203 /
&VERT X=0.59429,0.06,0.082592 /
&VERT X=0.59108,0.06,0.10306 /
&VERT X=0.58717,0.06,0.1234 /
&VERT X=0.58257,0.06,0.14359 /
&VERT X=0.57726,0.06,0.16361 /
&VERT X=0.57127,0.06,0.18344 /
&VERT X=0.5646,0.06,0.20305 /
&VERT X=0.55725,0.06,0.22241 /
&VERT X=0.54924,0.06,0.24152 /
&VERT X=0.54058,0.06,0.26033 /
&VERT X=0.53127,0.06,0.27883 /
&VERT X=0.52133,0.06,0.29701 /
&VERT X=0.51077,0.06,0.31482 /
&VERT X=0.4996,0.06,0.33226 /
&VERT X=0.48783,0.06,0.34931 /
&VERT X=0.47549,0.06,0.36594 /
&VERT X=0.46257,0.06,0.38214 /
&VERT X=0.44911,0.06,0.39787 /
&VERT X=0.43511,0.06,0.41314 /
&VERT X=0.42059,0.06,0.42791 /
&VERT X=0.40557,0.06,0.44217 /
&VERT X=0.39006,0.06,0.45591 /
&VERT X=0.37409,0.06,0.4691 /
&VERT X=0.35768,0.06,0.48173 /
&VERT X=0.34084,0.06,0.49379 /