&HEAD CHID='grid_test',TITLE='Plume whirl case SVN $Revision$' /

&MESH IJK=16,4,4, XB=0.0,1.0,0.0,1.0,0.0,1.0 /
&MESH IJK=8,4,4, XB=1.0,2.0,0.0,1.0,0.0,1.0 /
&MESH IJK=4,4,4, XB=2.0,3.0,0.0,1.0,0.0,1.0 /
&MESH IJK=4,8,4, XB=0.0,1.0,1.0,2.0,0.0,1.0 /
&MESH IJK=8,8,4, XB=1.0,2.0,1.0,2.0,0.0,1.0 /
&MESH IJK=4,8,4, XB=2.0,3.0,1.0,2.0,0.0,1.0 /
&MESH IJK=4,4,4, XB=0.0,1.0,2.0,3.0,0.0,1.0 /
&MESH IJK=8,4,4, XB=1.0,2.0,2.0,3.0,0.0,1.0 /
&MESH IJK=4,16,4, XB=2.0,3.0,2.0,3.0,0.0,1.0 /
&MESH IJK=4,4,8, XB=0.0,1.0,0.0,1.0,1.0,2.0 /
&MESH IJK=8,4,8, XB=1.0,2.0,0.0,1.0,1.0,2.0 /
&MESH IJK=4,4,8, XB=2.0,3.0,0.0,1.0,1.0,2.0 /
&MESH IJK=4,8,8, XB=0.0,1.0,1.0,2.0,1.0,2.0 /
&MESH IJK=8,8,8, XB=1.0,2.0,1.0,2.0,1.0,2.0 /
&MESH IJK=4,8,8, XB=2.0,3.0,1.0,2.0,1.0,2.0 /
&MESH IJK=4,4,8, XB=0.0,1.0,2.0,3.0,1.0,2.0 /
&MESH IJK=8,4,8, XB=1.0,2.0,2.0,3.0,1.0,2.0 /
&MESH IJK=4,4,8, XB=2.0,3.0,2.0,3.0,1.0,2.0 /
&MESH IJK=16,4,4, XB=0.0,1.0,0.0,1.0,2.0,3.0 /
&MESH IJK=16,4,4, XB=1.0,2.0,0.0,1.0,2.0,3.0 /
&MESH IJK=16,4,4, XB=2.0,3.0,0.0,1.0,2.0,3.0 /
&MESH IJK=16,8,4, XB=0.0,1.0,1.0,2.0,2.0,3.0 /
&MESH IJK=16,8,4, XB=1.0,2.0,1.0,2.0,2.0,3.0 /
&MESH IJK=16,8,4, XB=2.0,3.0,1.0,2.0,2.0,3.0 /
&MESH IJK=16,4,4, XB=0.0,1.0,2.0,3.0,2.0,3.0 /
&MESH IJK=16,4,4, XB=1.0,2.0,2.0,3.0,2.0,3.0 /
&MESH IJK=16,4,4, XB=2.0,3.0,2.0,3.0,2.0,3.0 /

&TIME T_END=0. /  Total simulation time


&TAIL /
