&HEAD CHID='vcirctest2', TITLE='Xin_velocity_specified' /
  
&MESH IJK=20,20,20, XB=0,2,0,2,0,2 / single coarse mesh for testing
  
&TIME T_END=0/
      
&SURF ID='FLAME', RGB=256,192,32 /

VENT XB=0.6,1.4,0.6,1.4,0.0,0.0, RADIUS=0.3, SURF_ID='FLAME' /  
&VENT XB=0.6,1.4,0.6,1.4,0.0,0.0, SURF_ID='FLAME' /  

&VENT XB=0.2,1.8,0.2,1.8,0.0,0.0 SURF_ID='OPEN'/

&TAIL /
