&HEAD CHID='Ibeam_demo', TITLE='Demo of Abaqus >> Matlab freeBoundary, created by Ibeam_demo.m' /
  
&MESH IJK=32,32,32, XB=-.5,.5,-.5,.5,0,1/
  
&TIME T_END=10./
  
&MISC IMMERSED_BOUNDARY_METHOD=1 /
  
&SURF ID='hot', COLOR='RED', CONVECTIVE_HEAT_FLUX=1000./
&SURF ID='cold', COLOR='BLUE'/
  
&VENT MB='XMIN', SURF_ID='OPEN'/
&VENT MB='XMAX', SURF_ID='OPEN'/
&VENT MB='YMIN', SURF_ID='OPEN'/
&VENT MB='YMAX', SURF_ID='OPEN'/
&VENT MB='ZMAX', SURF_ID='OPEN'/
&VENT XB=-.2,.2,-.2,.2,0,0, SURF_ID='hot'/
  
&MATL ID='my solid', DENSITY=1000., CONDUCTIVITY=1., SPECIFIC_HEAT=1. /
  
&SLCF PBY=0, QUANTITY='TEMPERATURE', VECTOR=.TRUE. /
&SLCF PBX=0, QUANTITY='TEMPERATURE', VECTOR=.TRUE. /
  
&BNDE QUANTITY='WALL TEMPERATURE' /
  
&VERT X=0.05,0.02,1 /
&VERT X=0.05,0.18,1 /
&VERT X=0.05,0.18,0 /
&VERT X=0.05,0.02,0 /
&VERT X=0,0.18,1 /
&VERT X=0,0.18,0 /
&VERT X=0.12,0.18,1 /
&VERT X=0.07,0.18,1 /
&VERT X=0.07,0.18,0 /
&VERT X=0.12,0.18,0 /
&VERT X=0.07,0.02,1 /
&VERT X=0.07,0.02,0 /
&VERT X=0.12,0.02,1 /
&VERT X=0.12,0.02,0 /
&VERT X=0.12,0,1 /
&VERT X=0.12,0,0 /
&VERT X=0,0,1 /
&VERT X=0,0,0 /
&VERT X=0,0.02,1 /
&VERT X=0,0.02,0 /
&VERT X=0,0.2,1 /
&VERT X=0,0.2,0 /
&VERT X=0.12,0.2,0 /
&VERT X=0.12,0.2,1 /
&VERT X=0.05,0.052,1 /
&VERT X=0.05,0.084,1 /
&VERT X=0.05,0.116,1 /
&VERT X=0.05,0.148,1 /
&VERT X=0.05,0.18,0.9697 /
&VERT X=0.05,0.18,0.93939 /
&VERT X=0.05,0.18,0.90909 /
&VERT X=0.05,0.18,0.87879 /
&VERT X=0.05,0.18,0.84848 /
&VERT X=0.05,0.18,0.81818 /
&VERT X=0.05,0.18,0.78788 /
&VERT X=0.05,0.18,0.75758 /
&VERT X=0.05,0.18,0.72727 /
&VERT X=0.05,0.18,0.69697 /
&VERT X=0.05,0.18,0.66667 /
&VERT X=0.05,0.18,0.63636 /
&VERT X=0.05,0.18,0.60606 /
&VERT X=0.05,0.18,0.57576 /
&VERT X=0.05,0.18,0.54545 /
&VERT X=0.05,0.18,0.51515 /
&VERT X=0.05,0.18,0.48485 /
&VERT X=0.05,0.18,0.45455 /
&VERT X=0.05,0.18,0.42424 /
&VERT X=0.05,0.18,0.39394 /
&VERT X=0.05,0.18,0.36364 /
&VERT X=0.05,0.18,0.33333 /
&VERT X=0.05,0.18,0.30303 /
&VERT X=0.05,0.18,0.27273 /
&VERT X=0.05,0.18,0.24242 /
&VERT X=0.05,0.18,0.21212 /
&VERT X=0.05,0.18,0.18182 /
&VERT X=0.05,0.18,0.15152 /
&VERT X=0.05,0.18,0.12121 /
&VERT X=0.05,0.18,0.090909 /
&VERT X=0.05,0.18,0.060606 /
&VERT X=0.05,0.18,0.030303 /
&VERT X=0.05,0.148,0 /
&VERT X=0.05,0.116,0 /
&VERT X=0.05,0.084,0 /
&VERT X=0.05,0.052,0 /
&VERT X=0.05,0.02,0.030303 /
&VERT X=0.05,0.02,0.060606 /
&VERT X=0.05,0.02,0.090909 /
&VERT X=0.05,0.02,0.12121 /
&VERT X=0.05,0.02,0.15152 /
&VERT X=0.05,0.02,0.18182 /
&VERT X=0.05,0.02,0.21212 /
&VERT X=0.05,0.02,0.24242 /
&VERT X=0.05,0.02,0.27273 /
&VERT X=0.05,0.02,0.30303 /
&VERT X=0.05,0.02,0.33333 /
&VERT X=0.05,0.02,0.36364 /
&VERT X=0.05,0.02,0.39394 /
&VERT X=0.05,0.02,0.42424 /
&VERT X=0.05,0.02,0.45455 /
&VERT X=0.05,0.02,0.48485 /
&VERT X=0.05,0.02,0.51515 /
&VERT X=0.05,0.02,0.54545 /
&VERT X=0.05,0.02,0.57576 /
&VERT X=0.05,0.02,0.60606 /
&VERT X=0.05,0.02,0.63636 /
&VERT X=0.05,0.02,0.66667 /
&VERT X=0.05,0.02,0.69697 /
&VERT X=0.05,0.02,0.72727 /
&VERT X=0.05,0.02,0.75758 /
&VERT X=0.05,0.02,0.78788 /
&VERT X=0.05,0.02,0.81818 /
&VERT X=0.05,0.02,0.84848 /
&VERT X=0.05,0.02,0.87879 /
&VERT X=0.05,0.02,0.90909 /
&VERT X=0.05,0.02,0.93939 /
&VERT X=0.05,0.02,0.9697 /
&VERT X=0.025,0.18,1 /
&VERT X=0,0.18,0.9697 /
&VERT X=0,0.18,0.93939 /
&VERT X=0,0.18,0.90909 /
&VERT X=0,0.18,0.87879 /
&VERT X=0,0.18,0.84848 /
&VERT X=0,0.18,0.81818 /
&VERT X=0,0.18,0.78788 /
&VERT X=0,0.18,0.75758 /
&VERT X=0,0.18,0.72727 /
&VERT X=0,0.18,0.69697 /
&VERT X=0,0.18,0.66667 /
&VERT X=0,0.18,0.63636 /
&VERT X=0,0.18,0.60606 /
&VERT X=0,0.18,0.57576 /
&VERT X=0,0.18,0.54545 /
&VERT X=0,0.18,0.51515 /
&VERT X=0,0.18,0.48485 /
&VERT X=0,0.18,0.45455 /
&VERT X=0,0.18,0.42424 /
&VERT X=0,0.18,0.39394 /
&VERT X=0,0.18,0.36364 /
&VERT X=0,0.18,0.33333 /
&VERT X=0,0.18,0.30303 /
&VERT X=0,0.18,0.27273 /
&VERT X=0,0.18,0.24242 /
&VERT X=0,0.18,0.21212 /
&VERT X=0,0.18,0.18182 /
&VERT X=0,0.18,0.15152 /
&VERT X=0,0.18,0.12121 /
&VERT X=0,0.18,0.090909 /
&VERT X=0,0.18,0.060606 /
&VERT X=0,0.18,0.030303 /
&VERT X=0.025,0.18,0 /
&VERT X=0.095,0.18,1 /
&VERT X=0.07,0.18,0.9697 /
&VERT X=0.07,0.18,0.93939 /
&VERT X=0.07,0.18,0.90909 /
&VERT X=0.07,0.18,0.87879 /
&VERT X=0.07,0.18,0.84848 /
&VERT X=0.07,0.18,0.81818 /
&VERT X=0.07,0.18,0.78788 /
&VERT X=0.07,0.18,0.75758 /
&VERT X=0.07,0.18,0.72727 /
&VERT X=0.07,0.18,0.69697 /
&VERT X=0.07,0.18,0.66667 /
&VERT X=0.07,0.18,0.63636 /
&VERT X=0.07,0.18,0.60606 /
&VERT X=0.07,0.18,0.57576 /
&VERT X=0.07,0.18,0.54545 /
&VERT X=0.07,0.18,0.51515 /
&VERT X=0.07,0.18,0.48485 /
&VERT X=0.07,0.18,0.45455 /
&VERT X=0.07,0.18,0.42424 /
&VERT X=0.07,0.18,0.39394 /
&VERT X=0.07,0.18,0.36364 /
&VERT X=0.07,0.18,0.33333 /
&VERT X=0.07,0.18,0.30303 /
&VERT X=0.07,0.18,0.27273 /
&VERT X=0.07,0.18,0.24242 /
&VERT X=0.07,0.18,0.21212 /
&VERT X=0.07,0.18,0.18182 /
&VERT X=0.07,0.18,0.15152 /
&VERT X=0.07,0.18,0.12121 /
&VERT X=0.07,0.18,0.090909 /
&VERT X=0.07,0.18,0.060606 /
&VERT X=0.07,0.18,0.030303 /
&VERT X=0.095,0.18,0 /
&VERT X=0.12,0.18,0.030303 /
&VERT X=0.12,0.18,0.060606 /
&VERT X=0.12,0.18,0.090909 /
&VERT X=0.12,0.18,0.12121 /
&VERT X=0.12,0.18,0.15152 /
&VERT X=0.12,0.18,0.18182 /
&VERT X=0.12,0.18,0.21212 /
&VERT X=0.12,0.18,0.24242 /
&VERT X=0.12,0.18,0.27273 /
&VERT X=0.12,0.18,0.30303 /
&VERT X=0.12,0.18,0.33333 /
&VERT X=0.12,0.18,0.36364 /
&VERT X=0.12,0.18,0.39394 /
&VERT X=0.12,0.18,0.42424 /
&VERT X=0.12,0.18,0.45455 /
&VERT X=0.12,0.18,0.48485 /
&VERT X=0.12,0.18,0.51515 /
&VERT X=0.12,0.18,0.54545 /
&VERT X=0.12,0.18,0.57576 /
&VERT X=0.12,0.18,0.60606 /
&VERT X=0.12,0.18,0.63636 /
&VERT X=0.12,0.18,0.66667 /
&VERT X=0.12,0.18,0.69697 /
&VERT X=0.12,0.18,0.72727 /
&VERT X=0.12,0.18,0.75758 /
&VERT X=0.12,0.18,0.78788 /
&VERT X=0.12,0.18,0.81818 /
&VERT X=0.12,0.18,0.84848 /
&VERT X=0.12,0.18,0.87879 /
&VERT X=0.12,0.18,0.90909 /
&VERT X=0.12,0.18,0.93939 /
&VERT X=0.12,0.18,0.9697 /
&VERT X=0.07,0.148,1 /
&VERT X=0.07,0.116,1 /
&VERT X=0.07,0.084,1 /
&VERT X=0.07,0.052,1 /
&VERT X=0.07,0.02,0.9697 /
&VERT X=0.07,0.02,0.93939 /
&VERT X=0.07,0.02,0.90909 /
&VERT X=0.07,0.02,0.87879 /
&VERT X=0.07,0.02,0.84848 /
&VERT X=0.07,0.02,0.81818 /
&VERT X=0.07,0.02,0.78788 /
&VERT X=0.07,0.02,0.75758 /
&VERT X=0.07,0.02,0.72727 /
&VERT X=0.07,0.02,0.69697 /
&VERT X=0.07,0.02,0.66667 /
&VERT X=0.07,0.02,0.63636 /
&VERT X=0.07,0.02,0.60606 /
&VERT X=0.07,0.02,0.57576 /
&VERT X=0.07,0.02,0.54545 /
&VERT X=0.07,0.02,0.51515 /
&VERT X=0.07,0.02,0.48485 /
&VERT X=0.07,0.02,0.45455 /
&VERT X=0.07,0.02,0.42424 /
&VERT X=0.07,0.02,0.39394 /
&VERT X=0.07,0.02,0.36364 /
&VERT X=0.07,0.02,0.33333 /
&VERT X=0.07,0.02,0.30303 /
&VERT X=0.07,0.02,0.27273 /
&VERT X=0.07,0.02,0.24242 /
&VERT X=0.07,0.02,0.21212 /
&VERT X=0.07,0.02,0.18182 /
&VERT X=0.07,0.02,0.15152 /
&VERT X=0.07,0.02,0.12121 /
&VERT X=0.07,0.02,0.090909 /
&VERT X=0.07,0.02,0.060606 /
&VERT X=0.07,0.02,0.030303 /
&VERT X=0.07,0.052,0 /
&VERT X=0.07,0.084,0 /
&VERT X=0.07,0.116,0 /
&VERT X=0.07,0.148,0 /
&VERT X=0.095,0.02,1 /
&VERT X=0.12,0.02,0.9697 /
&VERT X=0.12,0.02,0.93939 /
&VERT X=0.12,0.02,0.90909 /
&VERT X=0.12,0.02,0.87879 /
&VERT X=0.12,0.02,0.84848 /
&VERT X=0.12,0.02,0.81818 /
&VERT X=0.12,0.02,0.78788 /
&VERT X=0.12,0.02,0.75758 /
&VERT X=0.12,0.02,0.72727 /
&VERT X=0.12,0.02,0.69697 /
&VERT X=0.12,0.02,0.66667 /
&VERT X=0.12,0.02,0.63636 /
&VERT X=0.12,0.02,0.60606 /
&VERT X=0.12,0.02,0.57576 /
&VERT X=0.12,0.02,0.54545 /
&VERT X=0.12,0.02,0.51515 /
&VERT X=0.12,0.02,0.48485 /
&VERT X=0.12,0.02,0.45455 /
&VERT X=0.12,0.02,0.42424 /
&VERT X=0.12,0.02,0.39394 /
&VERT X=0.12,0.02,0.36364 /
&VERT X=0.12,0.02,0.33333 /
&VERT X=0.12,0.02,0.30303 /
&VERT X=0.12,0.02,0.27273 /
&VERT X=0.12,0.02,0.24242 /
&VERT X=0.12,0.02,0.21212 /
&VERT X=0.12,0.02,0.18182 /
&VERT X=0.12,0.02,0.15152 /
&VERT X=0.12,0.02,0.12121 /
&VERT X=0.12,0.02,0.090909 /
&VERT X=0.12,0.02,0.060606 /
&VERT X=0.12,0.02,0.030303 /
&VERT X=0.095,0.02,0 /
&VERT X=0.12,0,0.9697 /
&VERT X=0.12,0,0.93939 /
&VERT X=0.12,0,0.90909 /
&VERT X=0.12,0,0.87879 /
&VERT X=0.12,0,0.84848 /
&VERT X=0.12,0,0.81818 /
&VERT X=0.12,0,0.78788 /
&VERT X=0.12,0,0.75758 /
&VERT X=0.12,0,0.72727 /
&VERT X=0.12,0,0.69697 /
&VERT X=0.12,0,0.66667 /
&VERT X=0.12,0,0.63636 /
&VERT X=0.12,0,0.60606 /
&VERT X=0.12,0,0.57576 /
&VERT X=0.12,0,0.54545 /
&VERT X=0.12,0,0.51515 /
&VERT X=0.12,0,0.48485 /
&VERT X=0.12,0,0.45455 /
&VERT X=0.12,0,0.42424 /
&VERT X=0.12,0,0.39394 /
&VERT X=0.12,0,0.36364 /
&VERT X=0.12,0,0.33333 /
&VERT X=0.12,0,0.30303 /
&VERT X=0.12,0,0.27273 /
&VERT X=0.12,0,0.24242 /
&VERT X=0.12,0,0.21212 /
&VERT X=0.12,0,0.18182 /
&VERT X=0.12,0,0.15152 /
&VERT X=0.12,0,0.12121 /
&VERT X=0.12,0,0.090909 /
&VERT X=0.12,0,0.060606 /
&VERT X=0.12,0,0.030303 /
&VERT X=0.09,0,1 /
&VERT X=0.06,0,1 /
&VERT X=0.03,0,1 /
&VERT X=0,0,0.9697 /
&VERT X=0,0,0.93939 /
&VERT X=0,0,0.90909 /
&VERT X=0,0,0.87879 /
&VERT X=0,0,0.84848 /
&VERT X=0,0,0.81818 /
&VERT X=0,0,0.78788 /
&VERT X=0,0,0.75758 /
&VERT X=0,0,0.72727 /
&VERT X=0,0,0.69697 /
&VERT X=0,0,0.66667 /
&VERT X=0,0,0.63636 /
&VERT X=0,0,0.60606 /
&VERT X=0,0,0.57576 /
&VERT X=0,0,0.54545 /
&VERT X=0,0,0.51515 /
&VERT X=0,0,0.48485 /
&VERT X=0,0,0.45455 /
&VERT X=0,0,0.42424 /
&VERT X=0,0,0.39394 /
&VERT X=0,0,0.36364 /
&VERT X=0,0,0.33333 /
&VERT X=0,0,0.30303 /
&VERT X=0,0,0.27273 /
&VERT X=0,0,0.24242 /
&VERT X=0,0,0.21212 /
&VERT X=0,0,0.18182 /
&VERT X=0,0,0.15152 /
&VERT X=0,0,0.12121 /
&VERT X=0,0,0.090909 /
&VERT X=0,0,0.060606 /
&VERT X=0,0,0.030303 /
&VERT X=0.03,0,0 /
&VERT X=0.06,0,0 /
&VERT X=0.09,0,0 /
&VERT X=0,0.02,0.9697 /
&VERT X=0,0.02,0.93939 /
&VERT X=0,0.02,0.90909 /
&VERT X=0,0.02,0.87879 /
&VERT X=0,0.02,0.84848 /
&VERT X=0,0.02,0.81818 /
&VERT X=0,0.02,0.78788 /
&VERT X=0,0.02,0.75758 /
&VERT X=0,0.02,0.72727 /
&VERT X=0,0.02,0.69697 /
&VERT X=0,0.02,0.66667 /
&VERT X=0,0.02,0.63636 /
&VERT X=0,0.02,0.60606 /
&VERT X=0,0.02,0.57576 /
&VERT X=0,0.02,0.54545 /
&VERT X=0,0.02,0.51515 /
&VERT X=0,0.02,0.48485 /
&VERT X=0,0.02,0.45455 /
&VERT X=0,0.02,0.42424 /
&VERT X=0,0.02,0.39394 /
&VERT X=0,0.02,0.36364 /
&VERT X=0,0.02,0.33333 /
&VERT X=0,0.02,0.30303 /
&VERT X=0,0.02,0.27273 /
&VERT X=0,0.02,0.24242 /
&VERT X=0,0.02,0.21212 /
&VERT X=0,0.02,0.18182 /
&VERT X=0,0.02,0.15152 /
&VERT X=0,0.02,0.12121 /
&VERT X=0,0.02,0.090909 /
&VERT X=0,0.02,0.060606 /
&VERT X=0,0.02,0.030303 /
&VERT X=0.025,0.02,1 /
&VERT X=0.025,0.02,0 /
&VERT X=0,0.2,0.9697 /
&VERT X=0,0.2,0.93939 /
&VERT X=0,0.2,0.90909 /
&VERT X=0,0.2,0.87879 /
&VERT X=0,0.2,0.84848 /
&VERT X=0,0.2,0.81818 /
&VERT X=0,0.2,0.78788 /
&VERT X=0,0.2,0.75758 /
&VERT X=0,0.2,0.72727 /
&VERT X=0,0.2,0.69697 /
&VERT X=0,0.2,0.66667 /
&VERT X=0,0.2,0.63636 /
&VERT X=0,0.2,0.60606 /
&VERT X=0,0.2,0.57576 /
&VERT X=0,0.2,0.54545 /
&VERT X=0,0.2,0.51515 /
&VERT X=0,0.2,0.48485 /
&VERT X=0,0.2,0.45455 /
&VERT X=0,0.2,0.42424 /
&VERT X=0,0.2,0.39394 /
&VERT X=0,0.2,0.36364 /
&VERT X=0,0.2,0.33333 /
&VERT X=0,0.2,0.30303 /
&VERT X=0,0.2,0.27273 /
&VERT X=0,0.2,0.24242 /
&VERT X=0,0.2,0.21212 /
&VERT X=0,0.2,0.18182 /
&VERT X=0,0.2,0.15152 /
&VERT X=0,0.2,0.12121 /
&VERT X=0,0.2,0.090909 /
&VERT X=0,0.2,0.060606 /
&VERT X=0,0.2,0.030303 /
&VERT X=0.03,0.2,0 /
&VERT X=0.06,0.2,0 /
&VERT X=0.09,0.2,0 /
&VERT X=0.12,0.2,0.030303 /
&VERT X=0.12,0.2,0.060606 /
&VERT X=0.12,0.2,0.090909 /
&VERT X=0.12,0.2,0.12121 /
&VERT X=0.12,0.2,0.15152 /
&VERT X=0.12,0.2,0.18182 /
&VERT X=0.12,0.2,0.21212 /
&VERT X=0.12,0.2,0.24242 /
&VERT X=0.12,0.2,0.27273 /
&VERT X=0.12,0.2,0.30303 /
&VERT X=0.12,0.2,0.33333 /
&VERT X=0.12,0.2,0.36364 /
&VERT X=0.12,0.2,0.39394 /
&VERT X=0.12,0.2,0.42424 /
&VERT X=0.12,0.2,0.45455 /
&VERT X=0.12,0.2,0.48485 /
&VERT X=0.12,0.2,0.51515 /
&VERT X=0.12,0.2,0.54545 /
&VERT X=0.12,0.2,0.57576 /
&VERT X=0.12,0.2,0.60606 /
&VERT X=0.12,0.2,0.63636 /
&VERT X=0.12,0.2,0.66667 /
&VERT X=0.12,0.2,0.69697 /
&VERT X=0.12,0.2,0.72727 /
&VERT X=0.12,0.2,0.75758 /
&VERT X=0.12,0.2,0.78788 /
&VERT X=0.12,0.2,0.81818 /
&VERT X=0.12,0.2,0.84848 /
&VERT X=0.12,0.2,0.87879 /
&VERT X=0.12,0.2,0.90909 /
&VERT X=0.12,0.2,0.93939 /
&VERT X=0.12,0.2,0.9697 /
&VERT X=0.09,0.2,1 /
&VERT X=0.06,0.2,1 /
&VERT X=0.03,0.2,1 /
&VERT X=0.05,0.052,0.9697 /
&VERT X=0.05,0.084,0.9697 /
&VERT X=0.05,0.116,0.9697 /
&VERT X=0.05,0.148,0.9697 /
&VERT X=0.05,0.052,0.93939 /
&VERT X=0.05,0.084,0.93939 /
&VERT X=0.05,0.116,0.93939 /
&VERT X=0.05,0.148,0.93939 /
&VERT X=0.05,0.052,0.90909 /
&VERT X=0.05,0.084,0.90909 /
&VERT X=0.05,0.116,0.90909 /
&VERT X=0.05,0.148,0.90909 /
&VERT X=0.05,0.052,0.87879 /
&VERT X=0.05,0.084,0.87879 /
&VERT X=0.05,0.116,0.87879 /
&VERT X=0.05,0.148,0.87879 /
&VERT X=0.05,0.052,0.84848 /
&VERT X=0.05,0.084,0.84848 /
&VERT X=0.05,0.116,0.84848 /
&VERT X=0.05,0.148,0.84848 /
&VERT X=0.05,0.052,0.81818 /
&VERT X=0.05,0.084,0.81818 /
&VERT X=0.05,0.116,0.81818 /
&VERT X=0.05,0.148,0.81818 /
&VERT X=0.05,0.052,0.78788 /
&VERT X=0.05,0.084,0.78788 /
&VERT X=0.05,0.116,0.78788 /
&VERT X=0.05,0.148,0.78788 /
&VERT X=0.05,0.052,0.75758 /
&VERT X=0.05,0.084,0.75758 /
&VERT X=0.05,0.116,0.75758 /
&VERT X=0.05,0.148,0.75758 /
&VERT X=0.05,0.052,0.72727 /
&VERT X=0.05,0.084,0.72727 /
&VERT X=0.05,0.116,0.72727 /
&VERT X=0.05,0.148,0.72727 /
&VERT X=0.05,0.052,0.69697 /
&VERT X=0.05,0.084,0.69697 /
&VERT X=0.05,0.116,0.69697 /
&VERT X=0.05,0.148,0.69697 /
&VERT X=0.05,0.052,0.66667 /
&VERT X=0.05,0.084,0.66667 /
&VERT X=0.05,0.116,0.66667 /
&VERT X=0.05,0.148,0.66667 /
&VERT X=0.05,0.052,0.63636 /
&VERT X=0.05,0.084,0.63636 /
&VERT X=0.05,0.116,0.63636 /
&VERT X=0.05,0.148,0.63636 /
&VERT X=0.05,0.052,0.60606 /
&VERT X=0.05,0.084,0.60606 /
&VERT X=0.05,0.116,0.60606 /
&VERT X=0.05,0.148,0.60606 /
&VERT X=0.05,0.052,0.57576 /
&VERT X=0.05,0.084,0.57576 /
&VERT X=0.05,0.116,0.57576 /
&VERT X=0.05,0.148,0.57576 /
&VERT X=0.05,0.052,0.54545 /
&VERT X=0.05,0.084,0.54545 /
&VERT X=0.05,0.116,0.54545 /
&VERT X=0.05,0.148,0.54545 /
&VERT X=0.05,0.052,0.51515 /
&VERT X=0.05,0.084,0.51515 /
&VERT X=0.05,0.116,0.51515 /
&VERT X=0.05,0.148,0.51515 /
&VERT X=0.05,0.052,0.48485 /
&VERT X=0.05,0.084,0.48485 /
&VERT X=0.05,0.116,0.48485 /
&VERT X=0.05,0.148,0.48485 /
&VERT X=0.05,0.052,0.45455 /
&VERT X=0.05,0.084,0.45455 /
&VERT X=0.05,0.116,0.45455 /
&VERT X=0.05,0.148,0.45455 /
&VERT X=0.05,0.052,0.42424 /
&VERT X=0.05,0.084,0.42424 /
&VERT X=0.05,0.116,0.42424 /
&VERT X=0.05,0.148,0.42424 /
&VERT X=0.05,0.052,0.39394 /
&VERT X=0.05,0.084,0.39394 /
&VERT X=0.05,0.116,0.39394 /
&VERT X=0.05,0.148,0.39394 /
&VERT X=0.05,0.052,0.36364 /
&VERT X=0.05,0.084,0.36364 /
&VERT X=0.05,0.116,0.36364 /
&VERT X=0.05,0.148,0.36364 /
&VERT X=0.05,0.052,0.33333 /
&VERT X=0.05,0.084,0.33333 /
&VERT X=0.05,0.116,0.33333 /
&VERT X=0.05,0.148,0.33333 /
&VERT X=0.05,0.052,0.30303 /
&VERT X=0.05,0.084,0.30303 /
&VERT X=0.05,0.116,0.30303 /
&VERT X=0.05,0.148,0.30303 /
&VERT X=0.05,0.052,0.27273 /
&VERT X=0.05,0.084,0.27273 /
&VERT X=0.05,0.116,0.27273 /
&VERT X=0.05,0.148,0.27273 /
&VERT X=0.05,0.052,0.24242 /
&VERT X=0.05,0.084,0.24242 /
&VERT X=0.05,0.116,0.24242 /
&VERT X=0.05,0.148,0.24242 /
&VERT X=0.05,0.052,0.21212 /
&VERT X=0.05,0.084,0.21212 /
&VERT X=0.05,0.116,0.21212 /
&VERT X=0.05,0.148,0.21212 /
&VERT X=0.05,0.052,0.18182 /
&VERT X=0.05,0.084,0.18182 /
&VERT X=0.05,0.116,0.18182 /
&VERT X=0.05,0.148,0.18182 /
&VERT X=0.05,0.052,0.15152 /
&VERT X=0.05,0.084,0.15152 /
&VERT X=0.05,0.116,0.15152 /
&VERT X=0.05,0.148,0.15152 /
&VERT X=0.05,0.052,0.12121 /
&VERT X=0.05,0.084,0.12121 /
&VERT X=0.05,0.116,0.12121 /
&VERT X=0.05,0.148,0.12121 /
&VERT X=0.05,0.052,0.090909 /
&VERT X=0.05,0.084,0.090909 /
&VERT X=0.05,0.116,0.090909 /
&VERT X=0.05,0.148,0.090909 /
&VERT X=0.05,0.052,0.060606 /
&VERT X=0.05,0.084,0.060606 /
&VERT X=0.05,0.116,0.060606 /
&VERT X=0.05,0.148,0.060606 /
&VERT X=0.05,0.052,0.030303 /
&VERT X=0.05,0.084,0.030303 /
&VERT X=0.05,0.116,0.030303 /
&VERT X=0.05,0.148,0.030303 /
&VERT X=0.025,0.18,0.9697 /
&VERT X=0.025,0.18,0.93939 /
&VERT X=0.025,0.18,0.90909 /
&VERT X=0.025,0.18,0.87879 /
&VERT X=0.025,0.18,0.84848 /
&VERT X=0.025,0.18,0.81818 /
&VERT X=0.025,0.18,0.78788 /
&VERT X=0.025,0.18,0.75758 /
&VERT X=0.025,0.18,0.72727 /
&VERT X=0.025,0.18,0.69697 /
&VERT X=0.025,0.18,0.66667 /
&VERT X=0.025,0.18,0.63636 /
&VERT X=0.025,0.18,0.60606 /
&VERT X=0.025,0.18,0.57576 /
&VERT X=0.025,0.18,0.54545 /
&VERT X=0.025,0.18,0.51515 /
&VERT X=0.025,0.18,0.48485 /
&VERT X=0.025,0.18,0.45455 /
&VERT X=0.025,0.18,0.42424 /
&VERT X=0.025,0.18,0.39394 /
&VERT X=0.025,0.18,0.36364 /
&VERT X=0.025,0.18,0.33333 /
&VERT X=0.025,0.18,0.30303 /
&VERT X=0.025,0.18,0.27273 /
&VERT X=0.025,0.18,0.24242 /
&VERT X=0.025,0.18,0.21212 /
&VERT X=0.025,0.18,0.18182 /
&VERT X=0.025,0.18,0.15152 /
&VERT X=0.025,0.18,0.12121 /
&VERT X=0.025,0.18,0.090909 /
&VERT X=0.025,0.18,0.060606 /
&VERT X=0.025,0.18,0.030303 /
&VERT X=0.095,0.18,0.9697 /
&VERT X=0.095,0.18,0.93939 /
&VERT X=0.095,0.18,0.90909 /
&VERT X=0.095,0.18,0.87879 /
&VERT X=0.095,0.18,0.84848 /
&VERT X=0.095,0.18,0.81818 /
&VERT X=0.095,0.18,0.78788 /
&VERT X=0.095,0.18,0.75758 /
&VERT X=0.095,0.18,0.72727 /
&VERT X=0.095,0.18,0.69697 /
&VERT X=0.095,0.18,0.66667 /
&VERT X=0.095,0.18,0.63636 /
&VERT X=0.095,0.18,0.60606 /
&VERT X=0.095,0.18,0.57576 /
&VERT X=0.095,0.18,0.54545 /
&VERT X=0.095,0.18,0.51515 /
&VERT X=0.095,0.18,0.48485 /
&VERT X=0.095,0.18,0.45455 /
&VERT X=0.095,0.18,0.42424 /
&VERT X=0.095,0.18,0.39394 /
&VERT X=0.095,0.18,0.36364 /
&VERT X=0.095,0.18,0.33333 /
&VERT X=0.095,0.18,0.30303 /
&VERT X=0.095,0.18,0.27273 /
&VERT X=0.095,0.18,0.24242 /
&VERT X=0.095,0.18,0.21212 /
&VERT X=0.095,0.18,0.18182 /
&VERT X=0.095,0.18,0.15152 /
&VERT X=0.095,0.18,0.12121 /
&VERT X=0.095,0.18,0.090909 /
&VERT X=0.095,0.18,0.060606 /
&VERT X=0.095,0.18,0.030303 /
&VERT X=0.07,0.148,0.9697 /
&VERT X=0.07,0.116,0.9697 /
&VERT X=0.07,0.084,0.9697 /
&VERT X=0.07,0.052,0.9697 /
&VERT X=0.07,0.148,0.93939 /
&VERT X=0.07,0.116,0.93939 /
&VERT X=0.07,0.084,0.93939 /
&VERT X=0.07,0.052,0.93939 /
&VERT X=0.07,0.148,0.90909 /
&VERT X=0.07,0.116,0.90909 /
&VERT X=0.07,0.084,0.90909 /
&VERT X=0.07,0.052,0.90909 /
&VERT X=0.07,0.148,0.87879 /
&VERT X=0.07,0.116,0.87879 /
&VERT X=0.07,0.084,0.87879 /
&VERT X=0.07,0.052,0.87879 /
&VERT X=0.07,0.148,0.84848 /
&VERT X=0.07,0.116,0.84848 /
&VERT X=0.07,0.084,0.84848 /
&VERT X=0.07,0.052,0.84848 /
&VERT X=0.07,0.148,0.81818 /
&VERT X=0.07,0.116,0.81818 /
&VERT X=0.07,0.084,0.81818 /
&VERT X=0.07,0.052,0.81818 /
&VERT X=0.07,0.148,0.78788 /
&VERT X=0.07,0.116,0.78788 /
&VERT X=0.07,0.084,0.78788 /
&VERT X=0.07,0.052,0.78788 /
&VERT X=0.07,0.148,0.75758 /
&VERT X=0.07,0.116,0.75758 /
&VERT X=0.07,0.084,0.75758 /
&VERT X=0.07,0.052,0.75758 /
&VERT X=0.07,0.148,0.72727 /
&VERT X=0.07,0.116,0.72727 /
&VERT X=0.07,0.084,0.72727 /
&VERT X=0.07,0.052,0.72727 /
&VERT X=0.07,0.148,0.69697 /
&VERT X=0.07,0.116,0.69697 /
&VERT X=0.07,0.084,0.69697 /
&VERT X=0.07,0.052,0.69697 /
&VERT X=0.07,0.148,0.66667 /
&VERT X=0.07,0.116,0.66667 /
&VERT X=0.07,0.084,0.66667 /
&VERT X=0.07,0.052,0.66667 /
&VERT X=0.07,0.148,0.63636 /
&VERT X=0.07,0.116,0.63636 /
&VERT X=0.07,0.084,0.63636 /
&VERT X=0.07,0.052,0.63636 /
&VERT X=0.07,0.148,0.60606 /
&VERT X=0.07,0.116,0.60606 /
&VERT X=0.07,0.084,0.60606 /
&VERT X=0.07,0.052,0.60606 /
&VERT X=0.07,0.148,0.57576 /
&VERT X=0.07,0.116,0.57576 /
&VERT X=0.07,0.084,0.57576 /
&VERT X=0.07,0.052,0.57576 /
&VERT X=0.07,0.148,0.54545 /
&VERT X=0.07,0.116,0.54545 /
&VERT X=0.07,0.084,0.54545 /
&VERT X=0.07,0.052,0.54545 /
&VERT X=0.07,0.148,0.51515 /
&VERT X=0.07,0.116,0.51515 /
&VERT X=0.07,0.084,0.51515 /
&VERT X=0.07,0.052,0.51515 /
&VERT X=0.07,0.148,0.48485 /
&VERT X=0.07,0.116,0.48485 /
&VERT X=0.07,0.084,0.48485 /
&VERT X=0.07,0.052,0.48485 /
&VERT X=0.07,0.148,0.45455 /
&VERT X=0.07,0.116,0.45455 /
&VERT X=0.07,0.084,0.45455 /
&VERT X=0.07,0.052,0.45455 /
&VERT X=0.07,0.148,0.42424 /
&VERT X=0.07,0.116,0.42424 /
&VERT X=0.07,0.084,0.42424 /
&VERT X=0.07,0.052,0.42424 /
&VERT X=0.07,0.148,0.39394 /
&VERT X=0.07,0.116,0.39394 /
&VERT X=0.07,0.084,0.39394 /
&VERT X=0.07,0.052,0.39394 /
&VERT X=0.07,0.148,0.36364 /
&VERT X=0.07,0.116,0.36364 /
&VERT X=0.07,0.084,0.36364 /
&VERT X=0.07,0.052,0.36364 /
&VERT X=0.07,0.148,0.33333 /
&VERT X=0.07,0.116,0.33333 /
&VERT X=0.07,0.084,0.33333 /
&VERT X=0.07,0.052,0.33333 /
&VERT X=0.07,0.148,0.30303 /
&VERT X=0.07,0.116,0.30303 /
&VERT X=0.07,0.084,0.30303 /
&VERT X=0.07,0.052,0.30303 /
&VERT X=0.07,0.148,0.27273 /
&VERT X=0.07,0.116,0.27273 /
&VERT X=0.07,0.084,0.27273 /
&VERT X=0.07,0.052,0.27273 /
&VERT X=0.07,0.148,0.24242 /
&VERT X=0.07,0.116,0.24242 /
&VERT X=0.07,0.084,0.24242 /
&VERT X=0.07,0.052,0.24242 /
&VERT X=0.07,0.148,0.21212 /
&VERT X=0.07,0.116,0.21212 /
&VERT X=0.07,0.084,0.21212 /
&VERT X=0.07,0.052,0.21212 /
&VERT X=0.07,0.148,0.18182 /
&VERT X=0.07,0.116,0.18182 /
&VERT X=0.07,0.084,0.18182 /
&VERT X=0.07,0.052,0.18182 /
&VERT X=0.07,0.148,0.15152 /
&VERT X=0.07,0.116,0.15152 /
&VERT X=0.07,0.084,0.15152 /
&VERT X=0.07,0.052,0.15152 /
&VERT X=0.07,0.148,0.12121 /
&VERT X=0.07,0.116,0.12121 /
&VERT X=0.07,0.084,0.12121 /
&VERT X=0.07,0.052,0.12121 /
&VERT X=0.07,0.148,0.090909 /
&VERT X=0.07,0.116,0.090909 /
&VERT X=0.07,0.084,0.090909 /
&VERT X=0.07,0.052,0.090909 /
&VERT X=0.07,0.148,0.060606 /
&VERT X=0.07,0.116,0.060606 /
&VERT X=0.07,0.084,0.060606 /
&VERT X=0.07,0.052,0.060606 /
&VERT X=0.07,0.148,0.030303 /
&VERT X=0.07,0.116,0.030303 /
&VERT X=0.07,0.084,0.030303 /
&VERT X=0.07,0.052,0.030303 /
&VERT X=0.095,0.02,0.9697 /
&VERT X=0.095,0.02,0.93939 /
&VERT X=0.095,0.02,0.90909 /
&VERT X=0.095,0.02,0.87879 /
&VERT X=0.095,0.02,0.84848 /
&VERT X=0.095,0.02,0.81818 /
&VERT X=0.095,0.02,0.78788 /
&VERT X=0.095,0.02,0.75758 /
&VERT X=0.095,0.02,0.72727 /
&VERT X=0.095,0.02,0.69697 /
&VERT X=0.095,0.02,0.66667 /
&VERT X=0.095,0.02,0.63636 /
&VERT X=0.095,0.02,0.60606 /
&VERT X=0.095,0.02,0.57576 /
&VERT X=0.095,0.02,0.54545 /
&VERT X=0.095,0.02,0.51515 /
&VERT X=0.095,0.02,0.48485 /
&VERT X=0.095,0.02,0.45455 /
&VERT X=0.095,0.02,0.42424 /
&VERT X=0.095,0.02,0.39394 /
&VERT X=0.095,0.02,0.36364 /
&VERT X=0.095,0.02,0.33333 /
&VERT X=0.095,0.02,0.30303 /
&VERT X=0.095,0.02,0.27273 /
&VERT X=0.095,0.02,0.24242 /
&VERT X=0.095,0.02,0.21212 /
&VERT X=0.095,0.02,0.18182 /
&VERT X=0.095,0.02,0.15152 /
&VERT X=0.095,0.02,0.12121 /
&VERT X=0.095,0.02,0.090909 /
&VERT X=0.095,0.02,0.060606 /
&VERT X=0.095,0.02,0.030303 /
&VERT X=0.09,0,0.9697 /
&VERT X=0.06,0,0.9697 /
&VERT X=0.03,0,0.9697 /
&VERT X=0.09,0,0.93939 /
&VERT X=0.06,0,0.93939 /
&VERT X=0.03,0,0.93939 /
&VERT X=0.09,0,0.90909 /
&VERT X=0.06,0,0.90909 /
&VERT X=0.03,0,0.90909 /
&VERT X=0.09,0,0.87879 /
&VERT X=0.06,0,0.87879 /
&VERT X=0.03,0,0.87879 /
&VERT X=0.09,0,0.84848 /
&VERT X=0.06,0,0.84848 /
&VERT X=0.03,0,0.84848 /
&VERT X=0.09,0,0.81818 /
&VERT X=0.06,0,0.81818 /
&VERT X=0.03,0,0.81818 /
&VERT X=0.09,0,0.78788 /
&VERT X=0.06,0,0.78788 /
&VERT X=0.03,0,0.78788 /
&VERT X=0.09,0,0.75758 /
&VERT X=0.06,0,0.75758 /
&VERT X=0.03,0,0.75758 /
&VERT X=0.09,0,0.72727 /
&VERT X=0.06,0,0.72727 /
&VERT X=0.03,0,0.72727 /
&VERT X=0.09,0,0.69697 /
&VERT X=0.06,0,0.69697 /
&VERT X=0.03,0,0.69697 /
&VERT X=0.09,0,0.66667 /
&VERT X=0.06,0,0.66667 /
&VERT X=0.03,0,0.66667 /
&VERT X=0.09,0,0.63636 /
&VERT X=0.06,0,0.63636 /
&VERT X=0.03,0,0.63636 /
&VERT X=0.09,0,0.60606 /
&VERT X=0.06,0,0.60606 /
&VERT X=0.03,0,0.60606 /
&VERT X=0.09,0,0.57576 /
&VERT X=0.06,0,0.57576 /
&VERT X=0.03,0,0.57576 /
&VERT X=0.09,0,0.54545 /
&VERT X=0.06,0,0.54545 /
&VERT X=0.03,0,0.54545 /
&VERT X=0.09,0,0.51515 /
&VERT X=0.06,0,0.51515 /
&VERT X=0.03,0,0.51515 /
&VERT X=0.09,0,0.48485 /
&VERT X=0.06,0,0.48485 /
&VERT X=0.03,0,0.48485 /
&VERT X=0.09,0,0.45455 /
&VERT X=0.06,0,0.45455 /
&VERT X=0.03,0,0.45455 /
&VERT X=0.09,0,0.42424 /
&VERT X=0.06,0,0.42424 /
&VERT X=0.03,0,0.42424 /
&VERT X=0.09,0,0.39394 /
&VERT X=0.06,0,0.39394 /
&VERT X=0.03,0,0.39394 /
&VERT X=0.09,0,0.36364 /
&VERT X=0.06,0,0.36364 /
&VERT X=0.03,0,0.36364 /
&VERT X=0.09,0,0.33333 /
&VERT X=0.06,0,0.33333 /
&VERT X=0.03,0,0.33333 /
&VERT X=0.09,0,0.30303 /
&VERT X=0.06,0,0.30303 /
&VERT X=0.03,0,0.30303 /
&VERT X=0.09,0,0.27273 /
&VERT X=0.06,0,0.27273 /
&VERT X=0.03,0,0.27273 /
&VERT X=0.09,0,0.24242 /
&VERT X=0.06,0,0.24242 /
&VERT X=0.03,0,0.24242 /
&VERT X=0.09,0,0.21212 /
&VERT X=0.06,0,0.21212 /
&VERT X=0.03,0,0.21212 /
&VERT X=0.09,0,0.18182 /
&VERT X=0.06,0,0.18182 /
&VERT X=0.03,0,0.18182 /
&VERT X=0.09,0,0.15152 /
&VERT X=0.06,0,0.15152 /
&VERT X=0.03,0,0.15152 /
&VERT X=0.09,0,0.12121 /
&VERT X=0.06,0,0.12121 /
&VERT X=0.03,0,0.12121 /
&VERT X=0.09,0,0.090909 /
&VERT X=0.06,0,0.090909 /
&VERT X=0.03,0,0.090909 /
&VERT X=0.09,0,0.060606 /
&VERT X=0.06,0,0.060606 /
&VERT X=0.03,0,0.060606 /
&VERT X=0.09,0,0.030303 /
&VERT X=0.06,0,0.030303 /
&VERT X=0.03,0,0.030303 /
&VERT X=0.025,0.02,0.9697 /
&VERT X=0.025,0.02,0.93939 /
&VERT X=0.025,0.02,0.90909 /
&VERT X=0.025,0.02,0.87879 /
&VERT X=0.025,0.02,0.84848 /
&VERT X=0.025,0.02,0.81818 /
&VERT X=0.025,0.02,0.78788 /
&VERT X=0.025,0.02,0.75758 /
&VERT X=0.025,0.02,0.72727 /
&VERT X=0.025,0.02,0.69697 /
&VERT X=0.025,0.02,0.66667 /
&VERT X=0.025,0.02,0.63636 /
&VERT X=0.025,0.02,0.60606 /
&VERT X=0.025,0.02,0.57576 /
&VERT X=0.025,0.02,0.54545 /
&VERT X=0.025,0.02,0.51515 /
&VERT X=0.025,0.02,0.48485 /
&VERT X=0.025,0.02,0.45455 /
&VERT X=0.025,0.02,0.42424 /
&VERT X=0.025,0.02,0.39394 /
&VERT X=0.025,0.02,0.36364 /
&VERT X=0.025,0.02,0.33333 /
&VERT X=0.025,0.02,0.30303 /
&VERT X=0.025,0.02,0.27273 /
&VERT X=0.025,0.02,0.24242 /
&VERT X=0.025,0.02,0.21212 /
&VERT X=0.025,0.02,0.18182 /
&VERT X=0.025,0.02,0.15152 /
&VERT X=0.025,0.02,0.12121 /
&VERT X=0.025,0.02,0.090909 /
&VERT X=0.025,0.02,0.060606 /
&VERT X=0.025,0.02,0.030303 /
&VERT X=0.03,0.2,0.9697 /
&VERT X=0.06,0.2,0.9697 /
&VERT X=0.09,0.2,0.9697 /
&VERT X=0.03,0.2,0.93939 /
&VERT X=0.06,0.2,0.93939 /
&VERT X=0.09,0.2,0.93939 /
&VERT X=0.03,0.2,0.90909 /
&VERT X=0.06,0.2,0.90909 /
&VERT X=0.09,0.2,0.90909 /
&VERT X=0.03,0.2,0.87879 /
&VERT X=0.06,0.2,0.87879 /
&VERT X=0.09,0.2,0.87879 /
&VERT X=0.03,0.2,0.84848 /
&VERT X=0.06,0.2,0.84848 /
&VERT X=0.09,0.2,0.84848 /
&VERT X=0.03,0.2,0.81818 /
&VERT X=0.06,0.2,0.81818 /
&VERT X=0.09,0.2,0.81818 /
&VERT X=0.03,0.2,0.78788 /
&VERT X=0.06,0.2,0.78788 /
&VERT X=0.09,0.2,0.78788 /
&VERT X=0.03,0.2,0.75758 /
&VERT X=0.06,0.2,0.75758 /
&VERT X=0.09,0.2,0.75758 /
&VERT X=0.03,0.2,0.72727 /
&VERT X=0.06,0.2,0.72727 /
&VERT X=0.09,0.2,0.72727 /
&VERT X=0.03,0.2,0.69697 /
&VERT X=0.06,0.2,0.69697 /
&VERT X=0.09,0.2,0.69697 /
&VERT X=0.03,0.2,0.66667 /
&VERT X=0.06,0.2,0.66667 /
&VERT X=0.09,0.2,0.66667 /
&VERT X=0.03,0.2,0.63636 /
&VERT X=0.06,0.2,0.63636 /
&VERT X=0.09,0.2,0.63636 /
&VERT X=0.03,0.2,0.60606 /
&VERT X=0.06,0.2,0.60606 /
&VERT X=0.09,0.2,0.60606 /
&VERT X=0.03,0.2,0.57576 /
&VERT X=0.06,0.2,0.57576 /
&VERT X=0.09,0.2,0.57576 /
&VERT X=0.03,0.2,0.54545 /
&VERT X=0.06,0.2,0.54545 /
&VERT X=0.09,0.2,0.54545 /
&VERT X=0.03,0.2,0.51515 /
&VERT X=0.06,0.2,0.51515 /
&VERT X=0.09,0.2,0.51515 /
&VERT X=0.03,0.2,0.48485 /
&VERT X=0.06,0.2,0.48485 /
&VERT X=0.09,0.2,0.48485 /
&VERT X=0.03,0.2,0.45455 /
&VERT X=0.06,0.2,0.45455 /
&VERT X=0.09,0.2,0.45455 /
&VERT X=0.03,0.2,0.42424 /
&VERT X=0.06,0.2,0.42424 /
&VERT X=0.09,0.2,0.42424 /
&VERT X=0.03,0.2,0.39394 /
&VERT X=0.06,0.2,0.39394 /
&VERT X=0.09,0.2,0.39394 /
&VERT X=0.03,0.2,0.36364 /
&VERT X=0.06,0.2,0.36364 /
&VERT X=0.09,0.2,0.36364 /
&VERT X=0.03,0.2,0.33333 /
&VERT X=0.06,0.2,0.33333 /
&VERT X=0.09,0.2,0.33333 /
&VERT X=0.03,0.2,0.30303 /
&VERT X=0.06,0.2,0.30303 /
&VERT X=0.09,0.2,0.30303 /
&VERT X=0.03,0.2,0.27273 /
&VERT X=0.06,0.2,0.27273 /
&VERT X=0.09,0.2,0.27273 /
&VERT X=0.03,0.2,0.24242 /
&VERT X=0.06,0.2,0.24242 /
&VERT X=0.09,0.2,0.24242 /
&VERT X=0.03,0.2,0.21212 /
&VERT X=0.06,0.2,0.21212 /
&VERT X=0.09,0.2,0.21212 /
&VERT X=0.03,0.2,0.18182 /
&VERT X=0.06,0.2,0.18182 /
&VERT X=0.09,0.2,0.18182 /
&VERT X=0.03,0.2,0.15152 /
&VERT X=0.06,0.2,0.15152 /
&VERT X=0.09,0.2,0.15152 /
&VERT X=0.03,0.2,0.12121 /
&VERT X=0.06,0.2,0.12121 /
&VERT X=0.09,0.2,0.12121 /
&VERT X=0.03,0.2,0.090909 /
&VERT X=0.06,0.2,0.090909 /
&VERT X=0.09,0.2,0.090909 /
&VERT X=0.03,0.2,0.060606 /
&VERT X=0.06,0.2,0.060606 /
&VERT X=0.09,0.2,0.060606 /
&VERT X=0.03,0.2,0.030303 /
&VERT X=0.06,0.2,0.030303 /
&VERT X=0.09,0.2,0.030303 /
&VERT X=0.019364,0.010337,0.9675 /
&VERT X=0.048376,0.0093124,0.97337 /
&VERT X=0.060125,0.064275,0.7682 /
&VERT X=0.061288,0.051102,0.28432 /
&VERT X=0.061255,0.1242,0.97901 /
&VERT X=0.060627,0.074627,0.026298 /
&VERT X=0.060323,0.13588,0.11907 /
&VERT X=0.059634,0.034934,0.27467 /
&VERT X=0.014681,0.18968,0.016547 /
&VERT X=0.060153,0.16413,0.98523 /
&VERT X=0.10546,0.18934,0.014148 /
&VERT X=0.012305,0.010188,0.01442 /
&VERT X=0.10459,0.18995,0.98322 /
&VERT X=0.060268,0.035972,0.98278 /
&VERT X=0.060284,0.035545,0.014721 /
&VERT X=0.10666,0.01056,0.98588 /
&VERT X=0.092288,0.0097296,0.015723 /
&VERT X=0.039359,0.19331,0.039175 /
&VERT X=0.012946,0.01094,0.52979 /
&VERT X=0.018556,0.0090194,0.3654 /
&VERT X=0.041457,0.01084,0.80279 /
&VERT X=0.045468,0.19341,0.92362 /
&VERT X=0.010467,0.0096266,0.50279 /
&VERT X=0.058589,0.17566,0.91781 /
&VERT X=0.016351,0.010624,0.57407 /
&VERT X=0.011571,0.010291,0.8357 /
&VERT X=0.012683,0.18934,0.6515 /
&VERT X=0.008487,0.010631,0.88482 /
&VERT X=0.015057,0.19152,0.29877 /
&VERT X=0.071748,0.0091852,0.075715 /
&VERT X=0.061932,0.12902,0.17757 /
&VERT X=0.045992,0.0096765,0.74234 /
&VERT X=0.019316,0.0099337,0.21603 /
&VERT X=0.018092,0.010642,0.86215 /
&VERT X=0.06187,0.13817,0.53392 /
&VERT X=0.059505,0.16625,0.16909 /
&VERT X=0.060601,0.15108,0.42068 /
&VERT X=0.060831,0.069028,0.34896 /
&VERT X=0.043018,0.010019,0.43651 /
&VERT X=0.060046,0.06672,0.55826 /
&VERT X=0.03445,0.18879,0.70867 /
&VERT X=0.013376,0.010195,0.25794 /
&VERT X=0.037449,0.0089305,0.48244 /
&VERT X=0.013333,0.18968,0.95555 /
&VERT X=0.043176,0.010357,0.13761 /
&VERT X=0.015635,0.010122,0.66314 /
&VERT X=0.01713,0.0082281,0.88894 /