&HEAD CHID='fed_test', TITLE='Verification of FED Visualization'/

&MESH IJK= 5,5,5, XB= 0.0,2.0, 0.0,2.0, 0.0,2.0 /

&TIME T_END=100.0, DT=0.1 /
&DUMP NFRAMES=1000, DT_SL3D=0.1/

&SPEC ID='NITROGEN', BACKGROUND=.TRUE. /
&SPEC ID='OXYGEN' /
&SPEC ID='CARBON DIOXIDE' /
&SPEC ID='CARBON MONOXIDE' /

&INIT XB= 0.0,2.0,0.0,2.0,0.0,2.0,
        MASS_FRACTION(1)=0.10,
        MASS_FRACTION(2)=0.05,
        MASS_FRACTION(3)=0.04,
        SPEC_ID='OXYGEN','CARBON DIOXIDE','CARBON MONOXIDE' /
						
&SLCF PBX = 0.5, QUANTITY='VOLUME FRACTION', SPEC_ID='OXYGEN' /
&SLCF PBX = 0.5, QUANTITY='VOLUME FRACTION', SPEC_ID='CARBON DIOXIDE' /
&SLCF PBX = 0.5, QUANTITY='VOLUME FRACTION', SPEC_ID='CARBON MONOXIDE' /

&SLCF PBX = 1.5, QUANTITY='VOLUME FRACTION', SPEC_ID='OXYGEN' /
&SLCF PBX = 1.5, QUANTITY='VOLUME FRACTION', SPEC_ID='CARBON DIOXIDE' /
&SLCF PBX = 1.5, QUANTITY='VOLUME FRACTION', SPEC_ID='CARBON MONOXIDE' /

&SLCF XB= 0.0,2.0, 0.0,2.0, 0.0,2.0, QUANTITY='VOLUME FRACTION', SPEC_ID='OXYGEN' /
&SLCF XB= 0.0,2.0, 0.0,2.0, 0.0,2.0, QUANTITY='VOLUME FRACTION', SPEC_ID='CARBON DIOXIDE' /
&SLCF XB= 0.0,2.0, 0.0,2.0, 0.0,2.0, QUANTITY='VOLUME FRACTION', SPEC_ID='CARBON MONOXIDE' /

&TAIL /
