IMO MSC.1/Circ.1238 (30 October 2007)
'Guidelines For Evacuation Analysis for New and Existing Passenger Ships',
Annex 3
'Guidance on Validation/Verification of Evacuation Simulation Tools'

Test 2: Maintaining set walking speed up staircase

&HEAD CHID='IMO_Test_02_EVSS',
      TITLE='IMO-Test 2: Maintaining set walking speed up staircase, EVSS' /

&MESH IJK= 94,6,1, XB=0.0,47.0, 0.0,3.0, 0.95,1.05, EVACUATION=.TRUE.,
      EVAC_HUMANS=.TRUE., EVAC_Z_OFFSET=1.0, ID='FF1stFloor' /
&MESH IJK=120,6,1, XB=0.0,60.0, 0.0,3.0, 5.95,6.05, EVACUATION=.TRUE.,
      EVAC_HUMANS=.TRUE., EVAC_Z_OFFSET=1.0, ID='FF2ndFloor' /

&TIME T_END=100.0, DT=0.1 /

 Note: RADIATION=.FALSE. speeds up and saves memory, if only
       an evacuation calculation is done (no fire meshes at all).

&MISC EVACUATION_DRILL=.TRUE. /
&RADI RADIATION=.FALSE. /

 Note: suppress fire related output, because just evacuation
       meshes present. DT_PART is used both by fire and
       evacuation meshes. For evacuation it is the time step
       how often the positions of the agents are saved on the
       disk for Smokeview. The DT_HRR is also the output time step
       for the CHID_evac.csv spreadsheet file. The output time step
       will not be shorter than the EVAC_DT_STEADY_STATE (default is
       0.05 s) on the TIME-namelist.

&DUMP SMOKE3D=.FALSE.,
      NFRAMES=100,
      DT_PART=0.1,
      DT_HRR=0.1,
      DT_SLCF=1000000.0,
      DT_PL3D=1000000.0,
      DT_ISOF=1000000.0 /

 Default material for evacuation meshes is INERT and its color
 can not be changed esily in Smokeview.  Thus, an evacuation
 material is defined below, which has only color.  Of course,
 one can give explicitely COLOR or RGB on the OBST lines also.
&SURF ID='EVAC_WALL', RGB=200,0,200, EVAC_DEFAULT=.TRUE. / or COLOR

=======================================================
============= FIRE FDS GEOMETRY STARTS ================
=======================================================

 The 1st floor, y=0.5m-2.5m for walking, x:0-60m
&OBST XB =  0.0,60.0, 0.0,0.5, 0.0,2.0, SURF_ID='INERT'   /
&OBST XB =  0.0,60.0, 2.5,3.0, 0.0,2.0, SURF_ID='INERT'   /

 The 2nd floor.
&OBST XB =  0.0,60.0, 0.0,0.5, 5.0,7.0, SURF_ID='INERT'   /
&OBST XB =  0.0,60.0, 2.5,3.0, 5.0,7.0, SURF_ID='INERT'   /

=======================================================
============= FIRE FDS GEOMETRY ENDS ==================
=======================================================

=======================================================
============= EVAC GEOMETRY STARTS ====================
=======================================================

&EXIT ID='FinalExit2nd', IOR=+1,
      FYI='Comment line',
      COUNT_ONLY=.FALSE.,
      XYZ=59.5, 1.5, 6.0,
      XB= 60.0,60.0, 0.5,2.5, 5.95,6.05 /

 Next exits are used only to count humans, i.e., they only add
 columns in the CHID_evac.cvs file.

&EXIT ID='Exit_35m', IOR = +1,
      FYI='Comment line',
      COUNT_ONLY=.TRUE. ,
      XB = 35.0,35.0, 0.5,2.5, 0.95,1.05 /

&EXIT ID='Exit_50m', IOR = +1,
      FYI = 'Comment line',
      COUNT_ONLY = .TRUE. ,
      XB = 50.0,50.0, 0.5,2.5, 5.95,6.05 /

 Mesh FF1stFloor has EVSS and at the end of this EVSS there
 is DoorL1 (1st floor) ==> DoorR1 (2nd floor) transition.
&DOOR ID='DoorL1', IOR = +1,
      FYI = 'Comment line',
      TO_NODE='DoorR1',
      EXIT_SIGN=.TRUE.,
      XYZ=46.5, 1.5, 1.0,
      XB =47.0,47.0,  0.5,2.5, 0.95,1.05 /

&DOOR ID='DoorR1', IOR = -1,
      FYI='Comment line',
      TO_NODE='DoorL1', EXIT_SIGN=.FALSE.,
      XB =46.8,46.8,  0.5,2.5, 5.95,6.05 /

 Along incline 10m, 30 degrees up, horizontal length 8.66m
 heigth 5.0m. IOR=-1 ==> -x edge belongs to the evac grid (z).
&EVSS ID='StaisrsUp',
      FAC_V0_UP= 1.0,
      FAC_V0_DOWN= 1.0,
      FAC_V0_HORI= 1.0,
      HEIGHT=5.0,
      IOR= -1,
      XB= 38.34,47.00,  0.50,2.50,  0.95,1.05  /

=======================================================
============= Evac GEOMETRY ENDS ======================
=======================================================

 Distribution type 0: a single value, MEAN is used
 Distribution type 1: uniform distribution, LOW and HIGH are used
 Color method 0: Agents are colored using EVAC line colors
 Color method 3: Agents are colored using PERS line colors

 Agents start to walk at t=1.0 s. Target speed is 1.0 m/s.
 t_det is the detection time and t_pre is the reaction time
 and (t_pre + t_det) is the time when agents start to move
 towards the exit doors.

&PERS ID='Imo1', FYI='Imo test, walking velocity 1.0 m/s',
      DEFAULT_PROPERTIES='Male',
      VELOCITY_DIST=0, VEL_MEAN=1.0,
      PRE_EVAC_DIST=0, PRE_MEAN=1.0,
      DET_EVAC_DIST=0, DET_MEAN=0.0,
      AVATAR_COLOR= 'BLUE',
      TDET_SMOKE_DENS=0.1, HUMAN_SMOKE_HEIGHT=1.60,
      DENS_INIT=1.0, COLOR_METHOD=0,
      I_HERDING_TYPE=2, /

 Initial position of the humans
&EVAC ID='EVAC_1mps', FYI='Comment line',
      NUMBER_INITIAL_PERSONS=1,
      XB= 9.5,10.5, 1.0,2.0, 1.0,1.0
      AVATAR_COLOR= 'BLACK', AGENT_TYPE=2,
      FLOW_FIELD_ID= 'FF1stFloor',
      PERS_ID= 'Imo1' /

 Next line could be used to plot the evacuation flow fields:
 SLCF PBZ = 1.0, QUANTITY = 'VELOCITY', VECTOR = .TRUE., EVACUATION=.TRUE./

&TAIL /
