&HEAD CHID='geom_sphere2' /

&MESH IJK=100,10,10,XB=0.0,10.0,0.0,1.0,0.0,1.0 /
&TIME T_END=0.0, T_END_GEOM=1000.0 /

&SURF ID='surf1',RGB=255,0,0 /
&MATL ID='matl1', DENSITY=1000., CONDUCTIVITY=1., SPECIFIC_HEAT=1.,RGB=64,128,255/


&GEOM ID='sphere',SPHERE_ORIGIN=0.0,0.0,0.0,SPHERE_RADIUS=1.0,
      XYZ=10.0,0.5,1.0,XYZ_DOT=-0.01,0.0,-0.001,
      SCALE=0.6,0.4,0.2,
      GROTATE_DOT=0.36,GAXIS=0.0,1.0,0.0,
      SURF_ID='surf1',MATL_ID='matl1'
/
