&HEAD CHID='geom_texture4a' /

&MESH IJK=10,10,10,XB=-1.0,1.0,-1.0,1.0,-1.0,1.0 /

&SURF ID='surf1'
      TEXTURE_MAP='sphere_cover_04.png'COLOR='BLUE',
      TEXTURE_WIDTH=1.0,TEXTURE_HEIGHT=1.0/

&MATL ID='matl1', DENSITY=1000., CONDUCTIVITY=1., SPECIFIC_HEAT=1.,RGB=64,128,255/

&GEOM ID='sphere1',SURF_ID='surf1',MATL_ID='matl1',SPHERE_RADIUS=0.5,
N_LAT=50,N_LONG=50,SPHERE_ORIGIN=0.0,0.0,0.0,AZIM=270.0,
TEXTURE_ORIGIN=0.0,0.0,0.0,
TEXTURE_MAPPING='SPHERICAL' /

