&HEAD CHID='bound_test',TITLE='slice bound test $Revision$' /

&MESH IJK=4,5,5, XB=0.0,4.0,0.0,3.0,0.0,5.0 /

&TIME T_END=10. /  Total simulation time


&INIT XB=0.0,1.0,0.0,1.0,0.0,1.0,TEMPERATURE=111.0 /
&INIT XB=1.0,2.0,0.0,1.0,0.0,1.0,TEMPERATURE=211.0 /
&INIT XB=2.0,3.0,0.0,1.0,0.0,1.0,TEMPERATURE=311.0 /
&INIT XB=3.0,4.0,0.0,1.0,0.0,1.0,TEMPERATURE=411.0 /

&INIT XB=0.0,1.0,0.0,1.0,1.0,2.0,TEMPERATURE=112.0 /
&INIT XB=1.0,2.0,0.0,1.0,1.0,2.0,TEMPERATURE=212.0 /
&INIT XB=2.0,3.0,0.0,1.0,1.0,2.0,TEMPERATURE=312.0 /
&INIT XB=3.0,4.0,0.0,1.0,1.0,2.0,TEMPERATURE=412.0 /

&INIT XB=0.0,1.0,0.0,1.0,2.0,3.0,TEMPERATURE=113.0 /
&INIT XB=1.0,2.0,0.0,1.0,2.0,3.0,TEMPERATURE=213.0 /
&INIT XB=2.0,3.0,0.0,1.0,2.0,3.0,TEMPERATURE=313.0 /
&INIT XB=3.0,4.0,0.0,1.0,2.0,3.0,TEMPERATURE=413.0 /

&INIT XB=0.0,1.0,0.0,1.0,3.0,4.0,TEMPERATURE=114.0 /
&INIT XB=1.0,2.0,0.0,1.0,3.0,4.0,TEMPERATURE=214.0 /
&INIT XB=2.0,3.0,0.0,1.0,3.0,4.0,TEMPERATURE=314.0 /
&INIT XB=3.0,4.0,0.0,1.0,3.0,4.0,TEMPERATURE=414.0 /

&INIT XB=0.0,1.0,0.0,1.0,4.0,5.0,TEMPERATURE=115.0 /
&INIT XB=1.0,2.0,0.0,1.0,4.0,5.0,TEMPERATURE=215.0 /
&INIT XB=2.0,3.0,0.0,1.0,4.0,5.0,TEMPERATURE=315.0 /
&INIT XB=3.0,4.0,0.0,1.0,4.0,5.0,TEMPERATURE=415.0 /

&INIT XB=0.0,1.0,1.0,2.0,0.0,1.0,TEMPERATURE=121.0 /
&INIT XB=1.0,2.0,1.0,2.0,0.0,1.0,TEMPERATURE=221.0 /
&INIT XB=2.0,3.0,1.0,2.0,0.0,1.0,TEMPERATURE=321.0 /
&INIT XB=3.0,4.0,1.0,2.0,0.0,1.0,TEMPERATURE=421.0 /

&INIT XB=0.0,1.0,1.0,2.0,1.0,2.0,TEMPERATURE=122.0 /
&INIT XB=1.0,2.0,1.0,2.0,1.0,2.0,TEMPERATURE=222.0 /
&INIT XB=2.0,3.0,1.0,2.0,1.0,2.0,TEMPERATURE=322.0 /
&INIT XB=3.0,4.0,1.0,2.0,1.0,2.0,TEMPERATURE=422.0 /

&INIT XB=0.0,1.0,1.0,2.0,2.0,3.0,TEMPERATURE=123.0 /
&INIT XB=1.0,2.0,1.0,2.0,2.0,3.0,TEMPERATURE=223.0 /
&INIT XB=2.0,3.0,1.0,2.0,2.0,3.0,TEMPERATURE=323.0 /
&INIT XB=3.0,4.0,1.0,2.0,2.0,3.0,TEMPERATURE=423.0 /

&INIT XB=0.0,1.0,1.0,2.0,3.0,4.0,TEMPERATURE=124.0 /
&INIT XB=1.0,2.0,1.0,2.0,3.0,4.0,TEMPERATURE=224.0 /
&INIT XB=2.0,3.0,1.0,2.0,3.0,4.0,TEMPERATURE=324.0 /
&INIT XB=3.0,4.0,1.0,2.0,3.0,4.0,TEMPERATURE=424.0 /

&INIT XB=0.0,1.0,1.0,2.0,4.0,5.0,TEMPERATURE=125.0 /
&INIT XB=1.0,2.0,1.0,2.0,4.0,5.0,TEMPERATURE=225.0 /
&INIT XB=2.0,3.0,1.0,2.0,4.0,5.0,TEMPERATURE=325.0 /
&INIT XB=3.0,4.0,1.0,2.0,4.0,5.0,TEMPERATURE=425.0 /

&INIT XB=0.0,1.0,2.0,3.0,0.0,1.0,TEMPERATURE=131.0 /
&INIT XB=1.0,2.0,2.0,3.0,0.0,1.0,TEMPERATURE=231.0 /
&INIT XB=2.0,3.0,2.0,3.0,0.0,1.0,TEMPERATURE=331.0 /
&INIT XB=3.0,4.0,2.0,3.0,0.0,1.0,TEMPERATURE=431.0 /

&INIT XB=0.0,1.0,2.0,3.0,1.0,2.0,TEMPERATURE=132.0 /
&INIT XB=1.0,2.0,2.0,3.0,1.0,2.0,TEMPERATURE=232.0 /
&INIT XB=2.0,3.0,2.0,3.0,1.0,2.0,TEMPERATURE=332.0 /
&INIT XB=3.0,4.0,2.0,3.0,1.0,2.0,TEMPERATURE=432.0 /

&INIT XB=0.0,1.0,2.0,3.0,2.0,3.0,TEMPERATURE=133.0 /
&INIT XB=1.0,2.0,2.0,3.0,2.0,3.0,TEMPERATURE=233.0 /
&INIT XB=2.0,3.0,2.0,3.0,2.0,3.0,TEMPERATURE=333.0 /
&INIT XB=3.0,4.0,2.0,3.0,2.0,3.0,TEMPERATURE=433.0 /

&INIT XB=0.0,1.0,2.0,3.0,3.0,4.0,TEMPERATURE=134.0 /
&INIT XB=1.0,2.0,2.0,3.0,3.0,4.0,TEMPERATURE=234.0 /
&INIT XB=2.0,3.0,2.0,3.0,3.0,4.0,TEMPERATURE=334.0 /
&INIT XB=3.0,4.0,2.0,3.0,3.0,4.0,TEMPERATURE=434.0 /

&INIT XB=0.0,1.0,2.0,3.0,4.0,5.0,TEMPERATURE=135.0 /
&INIT XB=1.0,2.0,2.0,3.0,4.0,5.0,TEMPERATURE=235.0 /
&INIT XB=2.0,3.0,2.0,3.0,4.0,5.0,TEMPERATURE=335.0 /
&INIT XB=3.0,4.0,2.0,3.0,4.0,5.0,TEMPERATURE=435.0 /

&OBST XB=0.0,1.0,0.0,3.0,0.0,5.0,COLOR='CYAN' /
&INIT XB=0.0,1.0,0.0,3.0,0.0,5.0,TEMPERATURE=2000.0 /

&SLCF PBY=2.0,QUANTITY='TEMPERATURE',CELL_CENTERED=.TRUE. /  
&SLCF PBY=2.0,QUANTITY='TEMPERATURE' /

&TAIL /
