&HEAD CHID='fed_test2', TITLE='Verification of FED Visualization'/

&MESH IJK= 10,10,10, XB= 0.0,1.0, 0.0,1.0, 0.0,1.0 /

&TIME T_END=100.0, DT=0.1 /
&DUMP NFRAMES=1000, DT_SL3D=0.1/

&SPEC ID='NITROGEN', BACKGROUND=.TRUE. /
&SPEC ID='OXYGEN' /
&SPEC ID='CARBON DIOXIDE' /
&SPEC ID='CARBON MONOXIDE' /

&INIT XB= 0.0,2.0,0.0,2.0,0.0,2.0,
        MASS_FRACTION(1)=0.10,
        MASS_FRACTION(2)=0.05,
        MASS_FRACTION(3)=0.04,
        SPEC_ID='OXYGEN','CARBON DIOXIDE','CARBON MONOXIDE' /

&OBST XB = 0.3,0.7,0.3,0.7,0.3,0.7,COLOR='BLUE' /
						
&SLCF PBX = 0.5, QUANTITY='VOLUME FRACTION', SPEC_ID='OXYGEN' /
&SLCF PBX = 0.5, QUANTITY='VOLUME FRACTION', SPEC_ID='CARBON DIOXIDE' /
&SLCF PBX = 0.5, QUANTITY='VOLUME FRACTION', SPEC_ID='CARBON MONOXIDE' /

&SLCF PBY = 0.5, QUANTITY='VOLUME FRACTION', SPEC_ID='OXYGEN' /
&SLCF PBY = 0.5, QUANTITY='VOLUME FRACTION', SPEC_ID='CARBON DIOXIDE' /
&SLCF PBY = 0.5, QUANTITY='VOLUME FRACTION', SPEC_ID='CARBON MONOXIDE' /

&SLCF PBZ = 0.5, QUANTITY='VOLUME FRACTION', SPEC_ID='OXYGEN' /
&SLCF PBZ = 0.5, QUANTITY='VOLUME FRACTION', SPEC_ID='CARBON DIOXIDE' /
&SLCF PBZ = 0.5, QUANTITY='VOLUME FRACTION', SPEC_ID='CARBON MONOXIDE' /

&SLCF XB= 0.0,1.0, 0.0,1.0, 0.0,1.0, QUANTITY='VOLUME FRACTION', SPEC_ID='OXYGEN' /
&SLCF XB= 0.0,2.0, 0.0,2.0, 0.0,2.0, QUANTITY='VOLUME FRACTION', SPEC_ID='CARBON DIOXIDE' /
&SLCF XB= 0.0,2.0, 0.0,2.0, 0.0,2.0, QUANTITY='VOLUME FRACTION', SPEC_ID='CARBON MONOXIDE' /

&TAIL /
