&HEAD CHID='geom_texture3' /

&MESH IJK=10,10,10,XB=0.0,1.0,0.0,1.0,0.0,1.0 /

&SURF ID='surf1'
      TEXTURE_MAP='day2.jpg'COLOR='BLUE',
      TEXTURE_WIDTH=1.0,TEXTURE_HEIGHT=1.0
       /

&GEOM ID='sphere',SURF_ID='surf1',SPHERE_RADIUS=1.0,
N_LEVELS=0,SPHERE_ORIGIN=0.5,0.5,0.5,
TEXTURE_ORIGIN=0.5,0.5,0.5,
TEXTURE_MAPPING='SPHERICAL' /
