&HEAD CHID='sphere_demo', TITLE='Demo of Matlab convhulln, created by sphere_demo.m' /
  
&MESH IJK=64,32,32, XB=-4,4,-2,2,-2,2 /
  
&TIME T_END=10./
  
&MISC IMMERSED_BOUNDARY_METHOD=1 /
  
&VENT MB='XMIN', SURF_ID='supply' /
&VENT MB='XMAX', SURF_ID='OPEN' /
  
&SURF ID='supply', VEL=-1., COLOR='LIGHT BLUE'/
&SURF ID='sphere', COLOR='GREEN'/
  
&SLCF PBY=0, QUANTITY='VELOCITY', VECTOR=.TRUE. /
  
&VERT X=0,0,1 /
&VERT X=0,0,1 /
&VERT X=0,0,1 /
&VERT X=0,0,1 /
&VERT X=0,0,1 /
&VERT X=0,0,1 /
&VERT X=0,0,1 /
&VERT X=0,0,1 /
&VERT X=0,0,1 /
&VERT X=0,0,1 /
&VERT X=0,0,1 /
&VERT X=0,0,1 /
&VERT X=0,0,1 /
&VERT X=0,0,1 /
&VERT X=0,0,1 /
&VERT X=0,0,1 /
&VERT X=0,0,1 /
&VERT X=0,0,1 /
&VERT X=0,0,1 /
&VERT X=0,0,1 /
&VERT X=0,0,1 /
&VERT X=0,0,1 /
&VERT X=0,0,1 /
&VERT X=0,0,1 /
&VERT X=0,0,1 /
&VERT X=0,0,1 /
&VERT X=0,0,1 /
&VERT X=0,0,1 /
&VERT X=0,0,1 /
&VERT X=0,0,1 /
&VERT X=0,0,1 /
&VERT X=0,0,1 /
&VERT X=0.10117,0,0.99487 /
&VERT X=0.099097,0.020365,0.99487 /
&VERT X=0.092969,0.039896,0.99487 /
&VERT X=0.083035,0.057794,0.99487 /
&VERT X=0.069702,0.073326,0.99487 /
&VERT X=0.053514,0.085856,0.99487 /
&VERT X=0.035136,0.094871,0.99487 /
&VERT X=0.01532,0.1,0.99487 /
&VERT X=-0.0051241,0.10104,0.99487 /
&VERT X=-0.025358,0.097939,0.99487 /
&VERT X=-0.044554,0.090829,0.99487 /
&VERT X=-0.061926,0.080001,0.99487 /
&VERT X=-0.076762,0.065898,0.99487 /
&VERT X=-0.088456,0.049097,0.99487 /
&VERT X=-0.096529,0.030286,0.99487 /
&VERT X=-0.10065,0.010235,0.99487 /
&VERT X=-0.10065,-0.010235,0.99487 /
&VERT X=-0.096529,-0.030286,0.99487 /
&VERT X=-0.088456,-0.049097,0.99487 /
&VERT X=-0.076762,-0.065898,0.99487 /
&VERT X=-0.061926,-0.080001,0.99487 /
&VERT X=-0.044554,-0.090829,0.99487 /
&VERT X=-0.025358,-0.097939,0.99487 /
&VERT X=-0.0051241,-0.10104,0.99487 /
&VERT X=0.01532,-0.1,0.99487 /
&VERT X=0.035136,-0.094871,0.99487 /
&VERT X=0.053514,-0.085856,0.99487 /
&VERT X=0.069702,-0.073326,0.99487 /
&VERT X=0.083035,-0.057794,0.99487 /
&VERT X=0.092969,-0.039896,0.99487 /
&VERT X=0.099097,-0.020365,0.99487 /
&VERT X=0.10117,-2.4779e-17,0.99487 /
&VERT X=0.2013,0,0.97953 /
&VERT X=0.19718,0.040521,0.97953 /
&VERT X=0.18498,0.079383,0.97953 /
&VERT X=0.16522,0.115,0.97953 /
&VERT X=0.13869,0.1459,0.97953 /
&VERT X=0.10648,0.17083,0.97953 /
&VERT X=0.069912,0.18877,0.97953 /
&VERT X=0.030482,0.19898,0.97953 /
&VERT X=-0.010196,0.20104,0.97953 /
&VERT X=-0.050456,0.19487,0.97953 /
&VERT X=-0.088651,0.18073,0.97953 /
&VERT X=-0.12322,0.15918,0.97953 /
&VERT X=-0.15274,0.13112,0.97953 /
&VERT X=-0.176,0.097691,0.97953 /
&VERT X=-0.19207,0.060261,0.97953 /
&VERT X=-0.20027,0.020365,0.97953 /
&VERT X=-0.20027,-0.020365,0.97953 /
&VERT X=-0.19207,-0.060261,0.97953 /
&VERT X=-0.176,-0.097691,0.97953 /
&VERT X=-0.15274,-0.13112,0.97953 /
&VERT X=-0.12322,-0.15918,0.97953 /
&VERT X=-0.088651,-0.18073,0.97953 /
&VERT X=-0.050456,-0.19487,0.97953 /
&VERT X=-0.010196,-0.20104,0.97953 /
&VERT X=0.030482,-0.19898,0.97953 /
&VERT X=0.069912,-0.18877,0.97953 /
&VERT X=0.10648,-0.17083,0.97953 /
&VERT X=0.13869,-0.1459,0.97953 /
&VERT X=0.16522,-0.115,0.97953 /
&VERT X=0.18498,-0.079383,0.97953 /
&VERT X=0.19718,-0.040521,0.97953 /
&VERT X=0.2013,-4.9304e-17,0.97953 /
&VERT X=0.29936,0,0.95414 /
&VERT X=0.29324,0.060261,0.95414 /
&VERT X=0.2751,0.11806,0.95414 /
&VERT X=0.24571,0.17102,0.95414 /
&VERT X=0.20625,0.21698,0.95414 /
&VERT X=0.15835,0.25405,0.95414 /
&VERT X=0.10397,0.28073,0.95414 /
&VERT X=0.045332,0.29591,0.95414 /
&VERT X=-0.015162,0.29898,0.95414 /
&VERT X=-0.075036,0.28981,0.95414 /
&VERT X=-0.13184,0.26877,0.95414 /
&VERT X=-0.18324,0.23673,0.95414 /
&VERT X=-0.22714,0.195,0.95414 /
&VERT X=-0.26175,0.14528,0.95414 /
&VERT X=-0.28563,0.089618,0.95414 /
&VERT X=-0.29783,0.030286,0.95414 /
&VERT X=-0.29783,-0.030286,0.95414 /
&VERT X=-0.28563,-0.089618,0.95414 /
&VERT X=-0.26175,-0.14528,0.95414 /
&VERT X=-0.22714,-0.195,0.95414 /
&VERT X=-0.18324,-0.23673,0.95414 /
&VERT X=-0.13184,-0.26877,0.95414 /
&VERT X=-0.075036,-0.28981,0.95414 /
&VERT X=-0.015162,-0.29898,0.95414 /
&VERT X=0.045332,-0.29591,0.95414 /
&VERT X=0.10397,-0.28073,0.95414 /
&VERT X=0.15835,-0.25405,0.95414 /
&VERT X=0.20625,-0.21698,0.95414 /
&VERT X=0.24571,-0.17102,0.95414 /
&VERT X=0.2751,-0.11806,0.95414 /
&VERT X=0.29324,-0.060261,0.95414 /
&VERT X=0.29936,-7.3323e-17,0.95414 /
&VERT X=0.39436,0,0.91896 /
&VERT X=0.38628,0.079383,0.91896 /
&VERT X=0.3624,0.15552,0.91896 /
&VERT X=0.32367,0.22528,0.91896 /
&VERT X=0.2717,0.28583,0.91896 /
&VERT X=0.2086,0.33467,0.91896 /
&VERT X=0.13696,0.36981,0.91896 /
&VERT X=0.059716,0.38981,0.91896 /
&VERT X=-0.019974,0.39385,0.91896 /
&VERT X=-0.098846,0.38177,0.91896 /
&VERT X=-0.17367,0.35405,0.91896 /
&VERT X=-0.24139,0.31185,0.91896 /
&VERT X=-0.29922,0.25687,0.91896 /
&VERT X=-0.3448,0.19138,0.91896 /
&VERT X=-0.37627,0.11806,0.91896 /
&VERT X=-0.39233,0.039896,0.91896 /
&VERT X=-0.39233,-0.039896,0.91896 /
&VERT X=-0.37627,-0.11806,0.91896 /
&VERT X=-0.3448,-0.19138,0.91896 /
&VERT X=-0.29922,-0.25687,0.91896 /
&VERT X=-0.24139,-0.31185,0.91896 /
&VERT X=-0.17367,-0.35405,0.91896 /
&VERT X=-0.098846,-0.38177,0.91896 /
&VERT X=-0.019974,-0.39385,0.91896 /
&VERT X=0.059716,-0.38981,0.91896 /
&VERT X=0.13696,-0.36981,0.91896 /
&VERT X=0.2086,-0.33467,0.91896 /
&VERT X=0.2717,-0.28583,0.91896 /
&VERT X=0.32367,-0.22528,0.91896 /
&VERT X=0.3624,-0.15552,0.91896 /
&VERT X=0.38628,-0.079383,0.91896 /
&VERT X=0.39436,-9.6589e-17,0.91896 /
&VERT X=0.4853,0,0.87435 /
&VERT X=0.47537,0.097691,0.87435 /
&VERT X=0.44597,0.19138,0.87435 /
&VERT X=0.39832,0.27724,0.87435 /
&VERT X=0.33436,0.35174,0.87435 /
&VERT X=0.25671,0.41185,0.87435 /
&VERT X=0.16855,0.45509,0.87435 /
&VERT X=0.073488,0.47971,0.87435 /
&VERT X=-0.02458,0.48468,0.87435 /
&VERT X=-0.12164,0.46981,0.87435 /
&VERT X=-0.21372,0.43571,0.87435 /
&VERT X=-0.29706,0.38377,0.87435 /
&VERT X=-0.36823,0.31611,0.87435 /
&VERT X=-0.42432,0.23552,0.87435 /
&VERT X=-0.46305,0.14528,0.87435 /
&VERT X=-0.48281,0.049097,0.87435 /
&VERT X=-0.48281,-0.049097,0.87435 /
&VERT X=-0.46305,-0.14528,0.87435 /
&VERT X=-0.42432,-0.23552,0.87435 /
&VERT X=-0.36823,-0.31611,0.87435 /
&VERT X=-0.29706,-0.38377,0.87435 /
&VERT X=-0.21372,-0.43571,0.87435 /
&VERT X=-0.12164,-0.46981,0.87435 /
&VERT X=-0.02458,-0.48468,0.87435 /
&VERT X=0.073488,-0.47971,0.87435 /
&VERT X=0.16855,-0.45509,0.87435 /
&VERT X=0.25671,-0.41185,0.87435 /
&VERT X=0.33436,-0.35174,0.87435 /
&VERT X=0.39832,-0.27724,0.87435 /
&VERT X=0.44597,-0.19138,0.87435 /
&VERT X=0.47537,-0.097691,0.87435 /
&VERT X=0.4853,-1.1886e-16,0.87435 /
&VERT X=0.57127,0,0.82076 /
&VERT X=0.55957,0.115,0.82076 /
&VERT X=0.52497,0.22528,0.82076 /
&VERT X=0.46888,0.32635,0.82076 /
&VERT X=0.39358,0.41405,0.82076 /
&VERT X=0.30218,0.4848,0.82076 /
&VERT X=0.1984,0.53571,0.82076 /
&VERT X=0.086506,0.56468,0.82076 /
&VERT X=-0.028934,0.57053,0.82076 /
&VERT X=-0.14319,0.55303,0.82076 /
&VERT X=-0.25158,0.51289,0.82076 /
&VERT X=-0.34968,0.45175,0.82076 /
&VERT X=-0.43345,0.37211,0.82076 /
&VERT X=-0.49949,0.27724,0.82076 /
&VERT X=-0.54507,0.17102,0.82076 /
&VERT X=-0.56834,0.057794,0.82076 /
&VERT X=-0.56834,-0.057794,0.82076 /
&VERT X=-0.54507,-0.17102,0.82076 /
&VERT X=-0.49949,-0.27724,0.82076 /
&VERT X=-0.43345,-0.37211,0.82076 /
&VERT X=-0.34968,-0.45175,0.82076 /
&VERT X=-0.25158,-0.51289,0.82076 /
&VERT X=-0.14319,-0.55303,0.82076 /
&VERT X=-0.028934,-0.57053,0.82076 /
&VERT X=0.086506,-0.56468,0.82076 /
&VERT X=0.1984,-0.53571,0.82076 /
&VERT X=0.30218,-0.4848,0.82076 /
&VERT X=0.39358,-0.41405,0.82076 /
&VERT X=0.46888,-0.32635,0.82076 /
&VERT X=0.52497,-0.22528,0.82076 /
&VERT X=0.55957,-0.115,0.82076 /
&VERT X=0.57127,-1.3992e-16,0.82076 /
&VERT X=0.65137,0,0.75876 /
&VERT X=0.63804,0.13112,0.75876 /
&VERT X=0.59858,0.25687,0.75876 /
&VERT X=0.53462,0.37211,0.75876 /
&VERT X=0.44877,0.47211,0.75876 /
&VERT X=0.34455,0.55278,0.75876 /
&VERT X=0.22623,0.61083,0.75876 /
&VERT X=0.098636,0.64386,0.75876 /
&VERT X=-0.032991,0.65054,0.75876 /
&VERT X=-0.16327,0.63058,0.75876 /
&VERT X=-0.28686,0.58481,0.75876 /
&VERT X=-0.39871,0.51509,0.75876 /
&VERT X=-0.49423,0.42429,0.75876 /
&VERT X=-0.56953,0.31611,0.75876 /
&VERT X=-0.6215,0.195,0.75876 /
&VERT X=-0.64803,0.065898,0.75876 /
&VERT X=-0.64803,-0.065898,0.75876 /
&VERT X=-0.6215,-0.195,0.75876 /
&VERT X=-0.56953,-0.31611,0.75876 /
&VERT X=-0.49423,-0.42429,0.75876 /
&VERT X=-0.39871,-0.51509,0.75876 /
&VERT X=-0.28686,-0.58481,0.75876 /
&VERT X=-0.16327,-0.63058,0.75876 /
&VERT X=-0.032991,-0.65054,0.75876 /
&VERT X=0.098636,-0.64386,0.75876 /
&VERT X=0.22623,-0.61083,0.75876 /
&VERT X=0.34455,-0.55278,0.75876 /
&VERT X=0.44877,-0.47211,0.75876 /
&VERT X=0.53462,-0.37211,0.75876 /
&VERT X=0.59858,-0.25687,0.75876 /
&VERT X=0.63804,-0.13112,0.75876 /
&VERT X=0.65137,-1.5954e-16,0.75876 /
&VERT X=0.72479,0,0.68897 /
&VERT X=0.70996,0.1459,0.68897 /
&VERT X=0.66605,0.28583,0.68897 /
&VERT X=0.59488,0.41405,0.68897 /
&VERT X=0.49936,0.52532,0.68897 /
&VERT X=0.38339,0.61509,0.68897 /
&VERT X=0.25172,0.67968,0.68897 /
&VERT X=0.10975,0.71643,0.68897 /
&VERT X=-0.03671,0.72386,0.68897 /
&VERT X=-0.18167,0.70166,0.68897 /
&VERT X=-0.31919,0.65072,0.68897 /
&VERT X=-0.44365,0.57315,0.68897 /
&VERT X=-0.54994,0.47211,0.68897 /
&VERT X=-0.63372,0.35174,0.68897 /
&VERT X=-0.69155,0.21698,0.68897 /
&VERT X=-0.72107,0.073326,0.68897 /
&VERT X=-0.72107,-0.073326,0.68897 /
&VERT X=-0.69155,-0.21698,0.68897 /
&VERT X=-0.63372,-0.35174,0.68897 /
&VERT X=-0.54994,-0.47211,0.68897 /
&VERT X=-0.44365,-0.57315,0.68897 /
&VERT X=-0.31919,-0.65072,0.68897 /
&VERT X=-0.18167,-0.70166,0.68897 /
&VERT X=-0.03671,-0.72386,0.68897 /
&VERT X=0.10975,-0.71643,0.68897 /
&VERT X=0.25172,-0.67968,0.68897 /
&VERT X=0.38339,-0.61509,0.68897 /
&VERT X=0.49936,-0.52532,0.68897 /
&VERT X=0.59488,-0.41405,0.68897 /
&VERT X=0.66605,-0.28583,0.68897 /
&VERT X=0.70996,-0.1459,0.68897 /
&VERT X=0.72479,-1.7752e-16,0.68897 /
&VERT X=0.79078,0,0.61211 /
&VERT X=0.77459,0.15918,0.61211 /
&VERT X=0.72669,0.31185,0.61211 /
&VERT X=0.64904,0.45175,0.61211 /
&VERT X=0.54482,0.57315,0.61211 /
&VERT X=0.41829,0.67109,0.61211 /
&VERT X=0.27464,0.74155,0.61211 /
&VERT X=0.11975,0.78166,0.61211 /
&VERT X=-0.040052,0.78976,0.61211 /
&VERT X=-0.19821,0.76553,0.61211 /
&VERT X=-0.34825,0.70996,0.61211 /
&VERT X=-0.48404,0.62533,0.61211 /
&VERT X=-0.60001,0.51509,0.61211 /
&VERT X=-0.69141,0.38377,0.61211 /
&VERT X=-0.75451,0.23673,0.61211 /
&VERT X=-0.78672,0.080001,0.61211 /
&VERT X=-0.78672,-0.080001,0.61211 /
&VERT X=-0.75451,-0.23673,0.61211 /
&VERT X=-0.69141,-0.38377,0.61211 /
&VERT X=-0.60001,-0.51509,0.61211 /
&VERT X=-0.48404,-0.62533,0.61211 /
&VERT X=-0.34825,-0.70996,0.61211 /
&VERT X=-0.19821,-0.76553,0.61211 /
&VERT X=-0.040052,-0.78976,0.61211 /
&VERT X=0.11975,-0.78166,0.61211 /
&VERT X=0.27464,-0.74155,0.61211 /
&VERT X=0.41829,-0.67109,0.61211 /
&VERT X=0.54482,-0.57315,0.61211 /
&VERT X=0.64904,-0.45175,0.61211 /
&VERT X=0.72669,-0.31185,0.61211 /
&VERT X=0.77459,-0.15918,0.61211 /
&VERT X=0.79078,-1.9368e-16,0.61211 /
&VERT X=0.84864,0,0.52896 /
&VERT X=0.83127,0.17083,0.52896 /
&VERT X=0.77987,0.33467,0.52896 /
&VERT X=0.69654,0.4848,0.52896 /
&VERT X=0.58469,0.61509,0.52896 /
&VERT X=0.4489,0.7202,0.52896 /
&VERT X=0.29474,0.79582,0.52896 /
&VERT X=0.12851,0.83886,0.52896 /
&VERT X=-0.042983,0.84756,0.52896 /
&VERT X=-0.21271,0.82155,0.52896 /
&VERT X=-0.37374,0.76192,0.52896 /
&VERT X=-0.51946,0.67109,0.52896 /
&VERT X=-0.64392,0.55278,0.52896 /
&VERT X=-0.74201,0.41185,0.52896 /
&VERT X=-0.80972,0.25405,0.52896 /
&VERT X=-0.84429,0.085856,0.52896 /
&VERT X=-0.84429,-0.085856,0.52896 /
&VERT X=-0.80972,-0.25405,0.52896 /
&VERT X=-0.74201,-0.41185,0.52896 /
&VERT X=-0.64392,-0.55278,0.52896 /
&VERT X=-0.51946,-0.67109,0.52896 /
&VERT X=-0.37374,-0.76192,0.52896 /
&VERT X=-0.21271,-0.82155,0.52896 /
&VERT X=-0.042983,-0.84756,0.52896 /
&VERT X=0.12851,-0.83886,0.52896 /
&VERT X=0.29474,-0.79582,0.52896 /
&VERT X=0.4489,-0.7202,0.52896 /
&VERT X=0.58469,-0.61509,0.52896 /
&VERT X=0.69654,-0.4848,0.52896 /
&VERT X=0.77987,-0.33467,0.52896 /
&VERT X=0.83127,-0.17083,0.52896 /
&VERT X=0.84864,-2.0786e-16,0.52896 /
&VERT X=0.8978,0,0.44039 /
&VERT X=0.87943,0.18073,0.44039 /
&VERT X=0.82504,0.35405,0.44039 /
&VERT X=0.73689,0.51289,0.44039 /
&VERT X=0.61856,0.65072,0.44039 /
&VERT X=0.47491,0.76192,0.44039 /
&VERT X=0.31181,0.84192,0.44039 /
&VERT X=0.13595,0.88745,0.44039 /
&VERT X=-0.045473,0.89665,0.44039 /
&VERT X=-0.22504,0.86914,0.44039 /
&VERT X=-0.39539,0.80605,0.44039 /
&VERT X=-0.54955,0.70996,0.44039 /
&VERT X=-0.68122,0.58481,0.44039 /
&VERT X=-0.78499,0.43571,0.44039 /
&VERT X=-0.85663,0.26877,0.44039 /
&VERT X=-0.8932,0.090829,0.44039 /
&VERT X=-0.8932,-0.090829,0.44039 /
&VERT X=-0.85663,-0.26877,0.44039 /
&VERT X=-0.78499,-0.43571,0.44039 /
&VERT X=-0.68122,-0.58481,0.44039 /
&VERT X=-0.54955,-0.70996,0.44039 /
&VERT X=-0.39539,-0.80605,0.44039 /
&VERT X=-0.22504,-0.86914,0.44039 /
&VERT X=-0.045473,-0.89665,0.44039 /
&VERT X=0.13595,-0.88745,0.44039 /
&VERT X=0.31181,-0.84192,0.44039 /
&VERT X=0.47491,-0.76192,0.44039 /
&VERT X=0.61856,-0.65072,0.44039 /
&VERT X=0.73689,-0.51289,0.44039 /
&VERT X=0.82504,-0.35405,0.44039 /
&VERT X=0.87943,-0.18073,0.44039 /
&VERT X=0.8978,-2.199e-16,0.44039 /
&VERT X=0.93775,0,0.34731 /
&VERT X=0.91856,0.18877,0.34731 /
&VERT X=0.86175,0.36981,0.34731 /
&VERT X=0.76967,0.53571,0.34731 /
&VERT X=0.64608,0.67968,0.34731 /
&VERT X=0.49604,0.79582,0.34731 /
&VERT X=0.32569,0.87938,0.34731 /
&VERT X=0.142,0.92694,0.34731 /
&VERT X=-0.047496,0.93655,0.34731 /
&VERT X=-0.23505,0.90782,0.34731 /
&VERT X=-0.41298,0.84192,0.34731 /
&VERT X=-0.574,0.74155,0.34731 /
&VERT X=-0.71153,0.61083,0.34731 /
&VERT X=-0.81992,0.45509,0.34731 /
&VERT X=-0.89475,0.28073,0.34731 /
&VERT X=-0.93294,0.094871,0.34731 /
&VERT X=-0.93294,-0.094871,0.34731 /
&VERT X=-0.89475,-0.28073,0.34731 /
&VERT X=-0.81992,-0.45509,0.34731 /
&VERT X=-0.71153,-0.61083,0.34731 /
&VERT X=-0.574,-0.74155,0.34731 /
&VERT X=-0.41298,-0.84192,0.34731 /
&VERT X=-0.23505,-0.90782,0.34731 /
&VERT X=-0.047496,-0.93655,0.34731 /
&VERT X=0.142,-0.92694,0.34731 /
&VERT X=0.32569,-0.87938,0.34731 /
&VERT X=0.49604,-0.79582,0.34731 /
&VERT X=0.64608,-0.67968,0.34731 /
&VERT X=0.76967,-0.53571,0.34731 /
&VERT X=0.86175,-0.36981,0.34731 /
&VERT X=0.91856,-0.18877,0.34731 /
&VERT X=0.93775,-2.2968e-16,0.34731 /
&VERT X=0.96808,0,0.25065 /
&VERT X=0.94826,0.19487,0.25065 /
&VERT X=0.88962,0.38177,0.25065 /
&VERT X=0.79456,0.55303,0.25065 /
&VERT X=0.66697,0.70166,0.25065 /
&VERT X=0.51208,0.82155,0.25065 /
&VERT X=0.33622,0.90782,0.25065 /
&VERT X=0.14659,0.95691,0.25065 /
&VERT X=-0.049032,0.96683,0.25065 /
&VERT X=-0.24265,0.93717,0.25065 /
&VERT X=-0.42634,0.86914,0.25065 /
&VERT X=-0.59257,0.76553,0.25065 /
&VERT X=-0.73454,0.63058,0.25065 /
&VERT X=-0.84643,0.46981,0.25065 /
&VERT X=-0.92368,0.28981,0.25065 /
&VERT X=-0.96311,0.097939,0.25065 /
&VERT X=-0.96311,-0.097939,0.25065 /
&VERT X=-0.92368,-0.28981,0.25065 /
&VERT X=-0.84643,-0.46981,0.25065 /
&VERT X=-0.73454,-0.63058,0.25065 /
&VERT X=-0.59257,-0.76553,0.25065 /
&VERT X=-0.42634,-0.86914,0.25065 /
&VERT X=-0.24265,-0.93717,0.25065 /
&VERT X=-0.049032,-0.96683,0.25065 /
&VERT X=0.14659,-0.95691,0.25065 /
&VERT X=0.33622,-0.90782,0.25065 /
&VERT X=0.51208,-0.82155,0.25065 /
&VERT X=0.66697,-0.70166,0.25065 /
&VERT X=0.79456,-0.55303,0.25065 /
&VERT X=0.88962,-0.38177,0.25065 /
&VERT X=0.94826,-0.19487,0.25065 /
&VERT X=0.96808,-2.3711e-16,0.25065 /
&VERT X=0.98847,0,0.15143 /
&VERT X=0.96823,0.19898,0.15143 /
&VERT X=0.90836,0.38981,0.15143 /
&VERT X=0.8113,0.56468,0.15143 /
&VERT X=0.68102,0.71643,0.15143 /
&VERT X=0.52286,0.83886,0.15143 /
&VERT X=0.3433,0.92694,0.15143 /
&VERT X=0.14968,0.97707,0.15143 /
&VERT X=-0.050065,0.9872,0.15143 /
&VERT X=-0.24776,0.95691,0.15143 /
&VERT X=-0.43532,0.88745,0.15143 /
&VERT X=-0.60505,0.78166,0.15143 /
&VERT X=-0.75001,0.64386,0.15143 /
&VERT X=-0.86426,0.47971,0.15143 /
&VERT X=-0.94314,0.29591,0.15143 /
&VERT X=-0.9834,0.1,0.15143 /
&VERT X=-0.9834,-0.1,0.15143 /
&VERT X=-0.94314,-0.29591,0.15143 /
&VERT X=-0.86426,-0.47971,0.15143 /
&VERT X=-0.75001,-0.64386,0.15143 /
&VERT X=-0.60505,-0.78166,0.15143 /
&VERT X=-0.43532,-0.88745,0.15143 /
&VERT X=-0.24776,-0.95691,0.15143 /
&VERT X=-0.050065,-0.9872,0.15143 /
&VERT X=0.14968,-0.97707,0.15143 /
&VERT X=0.3433,-0.92694,0.15143 /
&VERT X=0.52286,-0.83886,0.15143 /
&VERT X=0.68102,-0.71643,0.15143 /
&VERT X=0.8113,-0.56468,0.15143 /
&VERT X=0.90836,-0.38981,0.15143 /
&VERT X=0.96823,-0.19898,0.15143 /
&VERT X=0.98847,-2.421e-16,0.15143 /
&VERT X=0.99872,0,0.050649 /
&VERT X=0.97827,0.20104,0.050649 /
&VERT X=0.91778,0.39385,0.050649 /
&VERT X=0.81971,0.57053,0.050649 /
&VERT X=0.68808,0.72386,0.050649 /
&VERT X=0.52829,0.84756,0.050649 /
&VERT X=0.34686,0.93655,0.050649 /
&VERT X=0.15123,0.9872,0.050649 /
&VERT X=-0.050584,0.99743,0.050649 /
&VERT X=-0.25033,0.96683,0.050649 /
&VERT X=-0.43983,0.89665,0.050649 /
&VERT X=-0.61132,0.78976,0.050649 /
&VERT X=-0.75778,0.65054,0.050649 /
&VERT X=-0.87322,0.48468,0.050649 /
&VERT X=-0.95291,0.29898,0.050649 /
&VERT X=-0.99359,0.10104,0.050649 /
&VERT X=-0.99359,-0.10104,0.050649 /
&VERT X=-0.95291,-0.29898,0.050649 /
&VERT X=-0.87322,-0.48468,0.050649 /
&VERT X=-0.75778,-0.65054,0.050649 /
&VERT X=-0.61132,-0.78976,0.050649 /
&VERT X=-0.43983,-0.89665,0.050649 /
&VERT X=-0.25033,-0.96683,0.050649 /
&VERT X=-0.050584,-0.99743,0.050649 /
&VERT X=0.15123,-0.9872,0.050649 /
&VERT X=0.34686,-0.93655,0.050649 /
&VERT X=0.52829,-0.84756,0.050649 /
&VERT X=0.68808,-0.72386,0.050649 /
&VERT X=0.81971,-0.57053,0.050649 /
&VERT X=0.91778,-0.39385,0.050649 /
&VERT X=0.97827,-0.20104,0.050649 /
&VERT X=0.99872,-2.4461e-16,0.050649 /
&VERT X=0.99872,0,-0.050649 /
&VERT X=0.97827,0.20104,-0.050649 /
&VERT X=0.91778,0.39385,-0.050649 /
&VERT X=0.81971,0.57053,-0.050649 /
&VERT X=0.68808,0.72386,-0.050649 /
&VERT X=0.52829,0.84756,-0.050649 /
&VERT X=0.34686,0.93655,-0.050649 /
&VERT X=0.15123,0.9872,-0.050649 /
&VERT X=-0.050584,0.99743,-0.050649 /
&VERT X=-0.25033,0.96683,-0.050649 /
&VERT X=-0.43983,0.89665,-0.050649 /
&VERT X=-0.61132,0.78976,-0.050649 /
&VERT X=-0.75778,0.65054,-0.050649 /
&VERT X=-0.87322,0.48468,-0.050649 /
&VERT X=-0.95291,0.29898,-0.050649 /
&VERT X=-0.99359,0.10104,-0.050649 /
&VERT X=-0.99359,-0.10104,-0.050649 /
&VERT X=-0.95291,-0.29898,-0.050649 /
&VERT X=-0.87322,-0.48468,-0.050649 /
&VERT X=-0.75778,-0.65054,-0.050649 /
&VERT X=-0.61132,-0.78976,-0.050649 /
&VERT X=-0.43983,-0.89665,-0.050649 /
&VERT X=-0.25033,-0.96683,-0.050649 /
&VERT X=-0.050584,-0.99743,-0.050649 /
&VERT X=0.15123,-0.9872,-0.050649 /
&VERT X=0.34686,-0.93655,-0.050649 /
&VERT X=0.52829,-0.84756,-0.050649 /
&VERT X=0.68808,-0.72386,-0.050649 /
&VERT X=0.81971,-0.57053,-0.050649 /
&VERT X=0.91778,-0.39385,-0.050649 /
&VERT X=0.97827,-0.20104,-0.050649 /
&VERT X=0.99872,-2.4461e-16,-0.050649 /
&VERT X=0.98847,0,-0.15143 /
&VERT X=0.96823,0.19898,-0.15143 /
&VERT X=0.90836,0.38981,-0.15143 /
&VERT X=0.8113,0.56468,-0.15143 /
&VERT X=0.68102,0.71643,-0.15143 /
&VERT X=0.52286,0.83886,-0.15143 /
&VERT X=0.3433,0.92694,-0.15143 /
&VERT X=0.14968,0.97707,-0.15143 /
&VERT X=-0.050065,0.9872,-0.15143 /
&VERT X=-0.24776,0.95691,-0.15143 /
&VERT X=-0.43532,0.88745,-0.15143 /
&VERT X=-0.60505,0.78166,-0.15143 /
&VERT X=-0.75001,0.64386,-0.15143 /
&VERT X=-0.86426,0.47971,-0.15143 /
&VERT X=-0.94314,0.29591,-0.15143 /
&VERT X=-0.9834,0.1,-0.15143 /
&VERT X=-0.9834,-0.1,-0.15143 /
&VERT X=-0.94314,-0.29591,-0.15143 /
&VERT X=-0.86426,-0.47971,-0.15143 /
&VERT X=-0.75001,-0.64386,-0.15143 /
&VERT X=-0.60505,-0.78166,-0.15143 /
&VERT X=-0.43532,-0.88745,-0.15143 /
&VERT X=-0.24776,-0.95691,-0.15143 /
&VERT X=-0.050065,-0.9872,-0.15143 /
&VERT X=0.14968,-0.97707,-0.15143 /
&VERT X=0.3433,-0.92694,-0.15143 /
&VERT X=0.52286,-0.83886,-0.15143 /
&VERT X=0.68102,-0.71643,-0.15143 /
&VERT X=0.8113,-0.56468,-0.15143 /
&VERT X=0.90836,-0.38981,-0.15143 /
&VERT X=0.96823,-0.19898,-0.15143 /
&VERT X=0.98847,-2.421e-16,-0.15143 /
&VERT X=0.96808,0,-0.25065 /
&VERT X=0.94826,0.19487,-0.25065 /
&VERT X=0.88962,0.38177,-0.25065 /
&VERT X=0.79456,0.55303,-0.25065 /
&VERT X=0.66697,0.70166,-0.25065 /
&VERT X=0.51208,0.82155,-0.25065 /
&VERT X=0.33622,0.90782,-0.25065 /
&VERT X=0.14659,0.95691,-0.25065 /
&VERT X=-0.049032,0.96683,-0.25065 /
&VERT X=-0.24265,0.93717,-0.25065 /
&VERT X=-0.42634,0.86914,-0.25065 /
&VERT X=-0.59257,0.76553,-0.25065 /
&VERT X=-0.73454,0.63058,-0.25065 /
&VERT X=-0.84643,0.46981,-0.25065 /
&VERT X=-0.92368,0.28981,-0.25065 /
&VERT X=-0.96311,0.097939,-0.25065 /
&VERT X=-0.96311,-0.097939,-0.25065 /
&VERT X=-0.92368,-0.28981,-0.25065 /
&VERT X=-0.84643,-0.46981,-0.25065 /
&VERT X=-0.73454,-0.63058,-0.25065 /
&VERT X=-0.59257,-0.76553,-0.25065 /
&VERT X=-0.42634,-0.86914,-0.25065 /
&VERT X=-0.24265,-0.93717,-0.25065 /
&VERT X=-0.049032,-0.96683,-0.25065 /
&VERT X=0.14659,-0.95691,-0.25065 /
&VERT X=0.33622,-0.90782,-0.25065 /
&VERT X=0.51208,-0.82155,-0.25065 /
&VERT X=0.66697,-0.70166,-0.25065 /
&VERT X=0.79456,-0.55303,-0.25065 /
&VERT X=0.88962,-0.38177,-0.25065 /
&VERT X=0.94826,-0.19487,-0.25065 /
&VERT X=0.96808,-2.3711e-16,-0.25065 /
&VERT X=0.93775,0,-0.34731 /
&VERT X=0.91856,0.18877,-0.34731 /
&VERT X=0.86175,0.36981,-0.34731 /
&VERT X=0.76967,0.53571,-0.34731 /
&VERT X=0.64608,0.67968,-0.34731 /
&VERT X=0.49604,0.79582,-0.34731 /
&VERT X=0.32569,0.87938,-0.34731 /
&VERT X=0.142,0.92694,-0.34731 /
&VERT X=-0.047496,0.93655,-0.34731 /
&VERT X=-0.23505,0.90782,-0.34731 /
&VERT X=-0.41298,0.84192,-0.34731 /
&VERT X=-0.574,0.74155,-0.34731 /
&VERT X=-0.71153,0.61083,-0.34731 /
&VERT X=-0.81992,0.45509,-0.34731 /
&VERT X=-0.89475,0.28073,-0.34731 /
&VERT X=-0.93294,0.094871,-0.34731 /
&VERT X=-0.93294,-0.094871,-0.34731 /
&VERT X=-0.89475,-0.28073,-0.34731 /
&VERT X=-0.81992,-0.45509,-0.34731 /
&VERT X=-0.71153,-0.61083,-0.34731 /
&VERT X=-0.574,-0.74155,-0.34731 /
&VERT X=-0.41298,-0.84192,-0.34731 /
&VERT X=-0.23505,-0.90782,-0.34731 /
&VERT X=-0.047496,-0.93655,-0.34731 /
&VERT X=0.142,-0.92694,-0.34731 /
&VERT X=0.32569,-0.87938,-0.34731 /
&VERT X=0.49604,-0.79582,-0.34731 /
&VERT X=0.64608,-0.67968,-0.34731 /
&VERT X=0.76967,-0.53571,-0.34731 /
&VERT X=0.86175,-0.36981,-0.34731 /
&VERT X=0.91856,-0.18877,-0.34731 /
&VERT X=0.93775,-2.2968e-16,-0.34731 /
&VERT X=0.8978,0,-0.44039 /
&VERT X=0.87943,0.18073,-0.44039 /
&VERT X=0.82504,0.35405,-0.44039 /
&VERT X=0.73689,0.51289,-0.44039 /
&VERT X=0.61856,0.65072,-0.44039 /
&VERT X=0.47491,0.76192,-0.44039 /
&VERT X=0.31181,0.84192,-0.44039 /
&VERT X=0.13595,0.88745,-0.44039 /
&VERT X=-0.045473,0.89665,-0.44039 /
&VERT X=-0.22504,0.86914,-0.44039 /
&VERT X=-0.39539,0.80605,-0.44039 /
&VERT X=-0.54955,0.70996,-0.44039 /
&VERT X=-0.68122,0.58481,-0.44039 /
&VERT X=-0.78499,0.43571,-0.44039 /
&VERT X=-0.85663,0.26877,-0.44039 /
&VERT X=-0.8932,0.090829,-0.44039 /
&VERT X=-0.8932,-0.090829,-0.44039 /
&VERT X=-0.85663,-0.26877,-0.44039 /
&VERT X=-0.78499,-0.43571,-0.44039 /
&VERT X=-0.68122,-0.58481,-0.44039 /
&VERT X=-0.54955,-0.70996,-0.44039 /
&VERT X=-0.39539,-0.80605,-0.44039 /
&VERT X=-0.22504,-0.86914,-0.44039 /
&VERT X=-0.045473,-0.89665,-0.44039 /
&VERT X=0.13595,-0.88745,-0.44039 /
&VERT X=0.31181,-0.84192,-0.44039 /
&VERT X=0.47491,-0.76192,-0.44039 /
&VERT X=0.61856,-0.65072,-0.44039 /
&VERT X=0.73689,-0.51289,-0.44039 /
&VERT X=0.82504,-0.35405,-0.44039 /
&VERT X=0.87943,-0.18073,-0.44039 /
&VERT X=0.8978,-2.199e-16,-0.44039 /
&VERT X=0.84864,0,-0.52896 /
&VERT X=0.83127,0.17083,-0.52896 /
&VERT X=0.77987,0.33467,-0.52896 /
&VERT X=0.69654,0.4848,-0.52896 /
&VERT X=0.58469,0.61509,-0.52896 /
&VERT X=0.4489,0.7202,-0.52896 /
&VERT X=0.29474,0.79582,-0.52896 /
&VERT X=0.12851,0.83886,-0.52896 /
&VERT X=-0.042983,0.84756,-0.52896 /
&VERT X=-0.21271,0.82155,-0.52896 /
&VERT X=-0.37374,0.76192,-0.52896 /
&VERT X=-0.51946,0.67109,-0.52896 /
&VERT X=-0.64392,0.55278,-0.52896 /
&VERT X=-0.74201,0.41185,-0.52896 /
&VERT X=-0.80972,0.25405,-0.52896 /
&VERT X=-0.84429,0.085856,-0.52896 /
&VERT X=-0.84429,-0.085856,-0.52896 /
&VERT X=-0.80972,-0.25405,-0.52896 /
&VERT X=-0.74201,-0.41185,-0.52896 /
&VERT X=-0.64392,-0.55278,-0.52896 /
&VERT X=-0.51946,-0.67109,-0.52896 /
&VERT X=-0.37374,-0.76192,-0.52896 /
&VERT X=-0.21271,-0.82155,-0.52896 /
&VERT X=-0.042983,-0.84756,-0.52896 /
&VERT X=0.12851,-0.83886,-0.52896 /
&VERT X=0.29474,-0.79582,-0.52896 /
&VERT X=0.4489,-0.7202,-0.52896 /
&VERT X=0.58469,-0.61509,-0.52896 /
&VERT X=0.69654,-0.4848,-0.52896 /
&VERT X=0.77987,-0.33467,-0.52896 /
&VERT X=0.83127,-0.17083,-0.52896 /
&VERT X=0.84864,-2.0786e-16,-0.52896 /
&VERT X=0.79078,0,-0.61211 /
&VERT X=0.77459,0.15918,-0.61211 /
&VERT X=0.72669,0.31185,-0.61211 /
&VERT X=0.64904,0.45175,-0.61211 /
&VERT X=0.54482,0.57315,-0.61211 /
&VERT X=0.41829,0.67109,-0.61211 /
&VERT X=0.27464,0.74155,-0.61211 /
&VERT X=0.11975,0.78166,-0.61211 /
&VERT X=-0.040052,0.78976,-0.61211 /
&VERT X=-0.19821,0.76553,-0.61211 /
&VERT X=-0.34825,0.70996,-0.61211 /
&VERT X=-0.48404,0.62533,-0.61211 /
&VERT X=-0.60001,0.51509,-0.61211 /
&VERT X=-0.69141,0.38377,-0.61211 /
&VERT X=-0.75451,0.23673,-0.61211 /
&VERT X=-0.78672,0.080001,-0.61211 /
&VERT X=-0.78672,-0.080001,-0.61211 /
&VERT X=-0.75451,-0.23673,-0.61211 /
&VERT X=-0.69141,-0.38377,-0.61211 /
&VERT X=-0.60001,-0.51509,-0.61211 /
&VERT X=-0.48404,-0.62533,-0.61211 /
&VERT X=-0.34825,-0.70996,-0.61211 /
&VERT X=-0.19821,-0.76553,-0.61211 /
&VERT X=-0.040052,-0.78976,-0.61211 /
&VERT X=0.11975,-0.78166,-0.61211 /
&VERT X=0.27464,-0.74155,-0.61211 /
&VERT X=0.41829,-0.67109,-0.61211 /
&VERT X=0.54482,-0.57315,-0.61211 /
&VERT X=0.64904,-0.45175,-0.61211 /
&VERT X=0.72669,-0.31185,-0.61211 /
&VERT X=0.77459,-0.15918,-0.61211 /
&VERT X=0.79078,-1.9368e-16,-0.61211 /
&VERT X=0.72479,0,-0.68897 /
&VERT X=0.70996,0.1459,-0.68897 /
&VERT X=0.66605,0.28583,-0.68897 /
&VERT X=0.59488,0.41405,-0.68897 /
&VERT X=0.49936,0.52532,-0.68897 /
&VERT X=0.38339,0.61509,-0.68897 /
&VERT X=0.25172,0.67968,-0.68897 /
&VERT X=0.10975,0.71643,-0.68897 /
&VERT X=-0.03671,0.72386,-0.68897 /
&VERT X=-0.18167,0.70166,-0.68897 /
&VERT X=-0.31919,0.65072,-0.68897 /
&VERT X=-0.44365,0.57315,-0.68897 /
&VERT X=-0.54994,0.47211,-0.68897 /
&VERT X=-0.63372,0.35174,-0.68897 /
&VERT X=-0.69155,0.21698,-0.68897 /
&VERT X=-0.72107,0.073326,-0.68897 /
&VERT X=-0.72107,-0.073326,-0.68897 /
&VERT X=-0.69155,-0.21698,-0.68897 /
&VERT X=-0.63372,-0.35174,-0.68897 /
&VERT X=-0.54994,-0.47211,-0.68897 /
&VERT X=-0.44365,-0.57315,-0.68897 /
&VERT X=-0.31919,-0.65072,-0.68897 /
&VERT X=-0.18167,-0.70166,-0.68897 /
&VERT X=-0.03671,-0.72386,-0.68897 /
&VERT X=0.10975,-0.71643,-0.68897 /
&VERT X=0.25172,-0.67968,-0.68897 /
&VERT X=0.38339,-0.61509,-0.68897 /
&VERT X=0.49936,-0.52532,-0.68897 /
&VERT X=0.59488,-0.41405,-0.68897 /
&VERT X=0.66605,-0.28583,-0.68897 /
&VERT X=0.70996,-0.1459,-0.68897 /
&VERT X=0.72479,-1.7752e-16,-0.68897 /
&VERT X=0.65137,0,-0.75876 /
&VERT X=0.63804,0.13112,-0.75876 /
&VERT X=0.59858,0.25687,-0.75876 /
&VERT X=0.53462,0.37211,-0.75876 /
&VERT X=0.44877,0.47211,-0.75876 /
&VERT X=0.34455,0.55278,-0.75876 /
&VERT X=0.22623,0.61083,-0.75876 /
&VERT X=0.098636,0.64386,-0.75876 /
&VERT X=-0.032991,0.65054,-0.75876 /
&VERT X=-0.16327,0.63058,-0.75876 /
&VERT X=-0.28686,0.58481,-0.75876 /
&VERT X=-0.39871,0.51509,-0.75876 /
&VERT X=-0.49423,0.42429,-0.75876 /
&VERT X=-0.56953,0.31611,-0.75876 /
&VERT X=-0.6215,0.195,-0.75876 /
&VERT X=-0.64803,0.065898,-0.75876 /
&VERT X=-0.64803,-0.065898,-0.75876 /
&VERT X=-0.6215,-0.195,-0.75876 /
&VERT X=-0.56953,-0.31611,-0.75876 /
&VERT X=-0.49423,-0.42429,-0.75876 /
&VERT X=-0.39871,-0.51509,-0.75876 /
&VERT X=-0.28686,-0.58481,-0.75876 /
&VERT X=-0.16327,-0.63058,-0.75876 /
&VERT X=-0.032991,-0.65054,-0.75876 /
&VERT X=0.098636,-0.64386,-0.75876 /
&VERT X=0.22623,-0.61083,-0.75876 /
&VERT X=0.34455,-0.55278,-0.75876 /
&VERT X=0.44877,-0.47211,-0.75876 /
&VERT X=0.53462,-0.37211,-0.75876 /
&VERT X=0.59858,-0.25687,-0.75876 /
&VERT X=0.63804,-0.13112,-0.75876 /
&VERT X=0.65137,-1.5954e-16,-0.75876 /
&VERT X=0.57127,0,-0.82076 /
&VERT X=0.55957,0.115,-0.82076 /
&VERT X=0.52497,0.22528,-0.82076 /
&VERT X=0.46888,0.32635,-0.82076 /
&VERT X=0.39358,0.41405,-0.82076 /
&VERT X=0.30218,0.4848,-0.82076 /
&VERT X=0.1984,0.53571,-0.82076 /
&VERT X=0.086506,0.56468,-0.82076 /
&VERT X=-0.028934,0.57053,-0.82076 /
&VERT X=-0.14319,0.55303,-0.82076 /
&VERT X=-0.25158,0.51289,-0.82076 /
&VERT X=-0.34968,0.45175,-0.82076 /
&VERT X=-0.43345,0.37211,-0.82076 /
&VERT X=-0.49949,0.27724,-0.82076 /
&VERT X=-0.54507,0.17102,-0.82076 /
&VERT X=-0.56834,0.057794,-0.82076 /
&VERT X=-0.56834,-0.057794,-0.82076 /
&VERT X=-0.54507,-0.17102,-0.82076 /
&VERT X=-0.49949,-0.27724,-0.82076 /
&VERT X=-0.43345,-0.37211,-0.82076 /
&VERT X=-0.34968,-0.45175,-0.82076 /
&VERT X=-0.25158,-0.51289,-0.82076 /
&VERT X=-0.14319,-0.55303,-0.82076 /
&VERT X=-0.028934,-0.57053,-0.82076 /
&VERT X=0.086506,-0.56468,-0.82076 /
&VERT X=0.1984,-0.53571,-0.82076 /
&VERT X=0.30218,-0.4848,-0.82076 /
&VERT X=0.39358,-0.41405,-0.82076 /
&VERT X=0.46888,-0.32635,-0.82076 /
&VERT X=0.52497,-0.22528,-0.82076 /
&VERT X=0.55957,-0.115,-0.82076 /
&VERT X=0.57127,-1.3992e-16,-0.82076 /
&VERT X=0.4853,0,-0.87435 /
&VERT X=0.47537,0.097691,-0.87435 /
&VERT X=0.44597,0.19138,-0.87435 /
&VERT X=0.39832,0.27724,-0.87435 /
&VERT X=0.33436,0.35174,-0.87435 /
&VERT X=0.25671,0.41185,-0.87435 /
&VERT X=0.16855,0.45509,-0.87435 /
&VERT X=0.073488,0.47971,-0.87435 /
&VERT X=-0.02458,0.48468,-0.87435 /
&VERT X=-0.12164,0.46981,-0.87435 /
&VERT X=-0.21372,0.43571,-0.87435 /
&VERT X=-0.29706,0.38377,-0.87435 /
&VERT X=-0.36823,0.31611,-0.87435 /
&VERT X=-0.42432,0.23552,-0.87435 /
&VERT X=-0.46305,0.14528,-0.87435 /
&VERT X=-0.48281,0.049097,-0.87435 /
&VERT X=-0.48281,-0.049097,-0.87435 /
&VERT X=-0.46305,-0.14528,-0.87435 /
&VERT X=-0.42432,-0.23552,-0.87435 /
&VERT X=-0.36823,-0.31611,-0.87435 /