&HEAD CHID='wind_test3', TITLE='Simple hill case with devices to visualize velocity profiles' /
&MISC U0=3,TERRAIN_CASE=.TRUE./ 
&TIME T_END=60 / 

- 1 Computational grid
cMESH IJK=50,50,25, XB=0,50,-25,25,0,25 /

- 2 Computational grids
&MESH IJK=50,25,25, XB=0,50,-25, 0,0,25 /
&MESH IJK=50,25,25, XB=0,50,  0,25,0,25 /

&REAC ID='WOOD'
      FUEL='WOOD'
      FYI='Ritchie, et al., 5th IAFSS, C_3.4 H_6.2 O_2.5, dHc = 15MW/kg'
      SOOT_YIELD = 0.02
      O          = 2.5
      C          = 3.4
      H          = 6.2
      HEAT_OF_COMBUSTION = 17700 /

&SPEC ID='WATER VAPOR' /

- Australian grass based on experimental case F19 (Mell et al., 2007 IJWF)
&SURF ID        = 'GRASS'
      VEGETATION = .TRUE.
      VEGETATION_CDRAG    = 0.375
      VEGETATION_LOAD     = 0.313
      VEGETATION_HEIGHT   = 0.51
      VEGETATION_MOISTURE = 0.06
      VEGETATION_SVRATIO  = 12240
      VEGETATION_CHAR_FRACTION  = 0.2
      VEGETATION_ELEMENT_DENSITY= 512
      EMISSIVITY = 0.99 
      VEGETATION_ARRHENIUS_DEGRAD=.FALSE.
      FIRELINE_MLR_MAX = 0.05
      RGB        = 122,117,48 /

- Ignitor fire
&SURF ID='LINEFIRE',HRRPUA=1000,RAMP_Q='RAMPIGN',RGB=255,0,0 /
&RAMP ID='RAMPIGN',T= 0,F=0 /
&RAMP ID='RAMPIGN',T=10,F=0 /
&RAMP ID='RAMPIGN',T=12,F=1 /
&RAMP ID='RAMPIGN',T=20,F=1 /
&RAMP ID='RAMPIGN',T=21,F=0 /
&VENT XB=4,5,-10,10,0,0,SURF_ID='LINEFIRE' /

-- Boundary conditions
&SURF ID='WIND',VEL=-3 /
&VENT XB =  0.0, 0.0,-25.0, 25.0, 0.0,25.0, SURF_ID = 'WIND' /
&VENT XB = 50.0,50.0,-25.0, 25.0, 0.0,25.0, SURF_ID = 'OPEN' /
&VENT XB =  0.0,50.0,-25.0,-25.0, 0.0,25.0, SURF_ID = 'OPEN' /
&VENT XB =  0.0,50.0, 25.0, 25.0, 0.0,25.0, SURF_ID = 'OPEN' /
&VENT XB =  0.0,50.0, 25.0, 25.0,25.0,25.0, SURF_ID = 'OPEN' /

- Hill and grass on slope
-- Grass on flat upwind of hill
&VENT XB=5,20,-20,20,0,0,SURF_ID='GRASS' /

-- upslope
&OBST XB=20,21,-20,20, 0, 1,SURF_ID6='GRASS','INERT','INERT','INERT','INERT','GRASS'/
&OBST XB=21,22,-20,20, 0, 2,SURF_ID6='GRASS','INERT','INERT','INERT','INERT','GRASS'/
&OBST XB=22,23,-20,20, 0, 3,SURF_ID6='GRASS','INERT','INERT','INERT','INERT','GRASS'/
&OBST XB=23,24,-20,20, 0, 4,SURF_ID6='GRASS','INERT','INERT','INERT','INERT','GRASS'/

&OBST XB=20,21,-25,-20, 0, 1 / no grass portion of hill upslope
&OBST XB=21,22,-25,-20, 0, 2/
&OBST XB=22,23,-25,-20, 0, 3/
&OBST XB=23,24,-25,-20, 0, 4/
&OBST XB=20,21, 20, 25, 0, 1/ 
&OBST XB=21,22, 20, 25, 0, 2/
&OBST XB=22,23, 20, 25, 0, 3/
&OBST XB=23,24, 20, 25, 0, 4/

-- flat top
&OBST XB=24,28,-20,20, 0, 4,SURF_ID6='INERT','INERT','INERT','INERT','INERT','GRASS'/

&OBST XB=24,28,-25,-20, 0, 4/ no grass portion of hill top
&OBST XB=24,28, 20, 25, 0, 4/

-- red structure on flat hill top
&SURF ID='red box',COLOR='RED'/
&OBST XB=25,27,-2,2,4,6,SURF_ID='red box',NOTERRAIN=.TRUE. /

-- downslope
&OBST XB=28,29,-20,20, 0, 3,SURF_ID6='GRASS','INERT','INERT','INERT','INERT','GRASS'/
&OBST XB=29,30,-20,20, 0, 2,SURF_ID6='GRASS','INERT','INERT','INERT','INERT','GRASS'/
&OBST XB=30,31,-20,20, 0, 1,SURF_ID6='GRASS','INERT','INERT','INERT','INERT','GRASS'/

&OBST XB=28,29,-25,-20, 0, 3/ no grass portion of hill downslope
&OBST XB=29,30,-25,-20, 0, 2/
&OBST XB=30,31,-25,-20, 0, 1/
&OBST XB=28,29, 20, 25, 0, 3/
&OBST XB=29,30, 20, 25, 0, 2/
&OBST XB=30,31, 20, 25, 0, 1/

-- grass downwind of hill
&VENT XB=31,45,-20,20, 0, 0,SURF_ID='GRASS'  /

- Outputs
&DUMP DT_SLCF=0.1,DT_BNDF=0.1,DT_PL3D=20 /

&BNDF QUANTITY='WALL TEMPERATURE'/
&BNDF QUANTITY='WALL THICKNESS'/
&BNDF QUANTITY='BURNING RATE'/
&BNDF QUANTITY='RADIATIVE HEAT FLUX'/
&BNDF QUANTITY='CONVECTIVE HEAT FLUX'/

-- Device files (gas phase point measurements)

&DEVC XB=10,10,-15,-15,0,25,POINTS=26,TIME_HISTORY=.TRUE.,QUANTITY='U-VELOCITY' /
&DEVC XB=10,10,-15,-15,0,25,POINTS=26,TIME_HISTORY=.TRUE.,QUANTITY='V-VELOCITY' /
&DEVC XB=10,10,-15,-15,0,25,POINTS=26,TIME_HISTORY=.TRUE.,QUANTITY='W-VELOCITY' /
&DEVC XB=10,10,-15,-15,0,25,POINTS=26,TIME_HISTORY=.TRUE.,QUANTITY='TEMPERATURE' /

&DEVC XB=40,40,-15,-15,0,25,POINTS=26,TIME_HISTORY=.TRUE.,QUANTITY='U-VELOCITY' /
&DEVC XB=40,40,-15,-15,0,25,POINTS=26,TIME_HISTORY=.TRUE.,QUANTITY='V-VELOCITY' /
&DEVC XB=40,40,-15,-15,0,25,POINTS=26,TIME_HISTORY=.TRUE.,QUANTITY='W-VELOCITY' /
&DEVC XB=40,40,-15,-15,0,25,POINTS=26,TIME_HISTORY=.TRUE.,QUANTITY='TEMPERATURE' /

&DEVC XB=10,10,15,15,0,25,POINTS=26,TIME_HISTORY=.TRUE.,QUANTITY='U-VELOCITY' /
&DEVC XB=10,10,15,15,0,25,POINTS=26,TIME_HISTORY=.TRUE.,QUANTITY='V-VELOCITY' /
&DEVC XB=10,10,15,15,0,25,POINTS=26,TIME_HISTORY=.TRUE.,QUANTITY='W-VELOCITY' /
&DEVC XB=10,10,15,15,0,25,POINTS=26,TIME_HISTORY=.TRUE.,QUANTITY='TEMPERATURE' /

&DEVC XB=40,40,15,15,0,25,POINTS=26,TIME_HISTORY=.TRUE.,QUANTITY='U-VELOCITY' /
&DEVC XB=40,40,15,15,0,25,POINTS=26,TIME_HISTORY=.TRUE.,QUANTITY='V-VELOCITY' /
&DEVC XB=40,40,15,15,0,25,POINTS=26,TIME_HISTORY=.TRUE.,QUANTITY='W-VELOCITY' /
&DEVC XB=40,40,15,15,0,25,POINTS=26,TIME_HISTORY=.TRUE.,QUANTITY='TEMPERATURE' /

&DEVC XB=20,20,-10,10,10,10,POINTS=21,TIME_HISTORY=.TRUE.,QUANTITY='U-VELOCITY' /
&DEVC XB=20,20,-10,10,10,10,POINTS=21,TIME_HISTORY=.TRUE.,QUANTITY='V-VELOCITY' /
&DEVC XB=20,20,-10,10,10,10,POINTS=21,TIME_HISTORY=.TRUE.,QUANTITY='W-VELOCITY' /
&DEVC XB=20,20,-10,10,10,10,POINTS=21,TIME_HISTORY=.TRUE.,QUANTITY='TEMPERATURE' /

- End of file
&TAIL /
