&HEAD CHID='wui_test1',TITLE='WUI object test SVN $Revision$' /

  Test mcanopy and mhouse smokeview objects used in WUI simulations

&MESH IJK=16,16,32, XB=0.0,1.6,0.0,1.6,0.0,3.2 /

&MISC HRRPUV_MAX_SMV=1300.0, TERRAIN_CASE=.TRUE./

&DUMP NFRAMES=400 DT_PL3D=8.0 /

&INIT XB=0.2,1.4,0.2,1.4,0.5,2.2  TEMPERATURE=600.0 /

&TIME T_END=40. /  Total simulation time

&MATL ID                    = 'FABRIC'
      FYI                   = 'Properties completely fabricated'
      SPECIFIC_HEAT         = 1.0
      CONDUCTIVITY          = 0.1
      DENSITY               = 100.0
      N_REACTIONS           = 1
      NU_SPEC=1., SPEC_ID='FUEL'
      REFERENCE_TEMPERATURE = 350.
      HEAT_OF_REACTION      = 3000.
      HEAT_OF_COMBUSTION    = 15000. /

&MATL ID                    = 'FOAM'
      FYI                   = 'Properties completely fabricated'
      SPECIFIC_HEAT         = 1.0
      CONDUCTIVITY          = 0.05
      DENSITY               = 40.0
      N_REACTIONS           = 1
      NU_SPEC=1., SPEC_ID='FUEL'
      REFERENCE_TEMPERATURE = 350.
      HEAT_OF_REACTION      = 1500.
      HEAT_OF_COMBUSTION    = 30000. /

&SURF ID             = 'UPHOLSTERY_LOWER'
      FYI            = 'Properties completely fabricated'
      RGB            = 151,96,88
      BURN_AWAY      = .FALSE.
      MATL_ID(1:2,1) = 'FABRIC','FOAM'
      THICKNESS(1:2) = 0.002,0.1 
/

&SURF ID             = 'UPHOLSTERY_UPPER'
      FYI            = 'Properties completely fabricated'
      RGB            = 151,96,88
      BURN_AWAY      = .FALSE.
      MATL_ID(1:2,1) = 'FABRIC','FOAM'
      THICKNESS(1:2) = 0.002,0.1 
      TMP_INNER      = 600.0
/
&REAC SOOT_YIELD=0.01,FUEL='PROPANE'/
&SURF ID='BURNER1',HRRPUA=600.0,PART_ID='house' /  Ignition source
&SURF ID='BURNER2',HRRPUA=600.0,PART_ID='canopy' /  Ignition source

&PROP ID='tree' SMOKEVIEW_PARAMETERS(1:3)='CANOPY_BASE_H=0.2' 'CANOPY_D=0.4' 'CANOPY_H=0.6' SMOKEVIEW_ID='canopy' /
&PART ID='house',MASSLESS=.TRUE.,
   QUANTITIES(1:4)='U-VELOCITY','V-VELOCITY','W-VELOCITY','PARTICLE TEMPERATURE'
   SAMPLING_FACTOR=10 PROP_ID='tree' /  Description of massless tracer particles. Apply at a
                                                             solid surface with the PART_ID='tracers'

&PROP ID='house' SMOKEVIEW_PARAMETERS(1:4)='LENGTH=0.2' 'DEPTH=0.2' 'HEIGHT1=0.1' 'HEIGHT2=0.1' SMOKEVIEW_ID='house' /
&PART ID='canopy',MASSLESS=.TRUE.,
   QUANTITIES(1:4)='U-VELOCITY','V-VELOCITY','W-VELOCITY','PARTICLE TEMPERATURE'
   SAMPLING_FACTOR=10 PROP_ID='house' /  Description of massless tracer particles. Apply at a
                                                             solid surface with the PART_ID='tracers'

&PROP ID='mtree' SMOKEVIEW_PARAMETERS(1:3)='CANOPY_BASE_H=0.2' 'CANOPY_D=0.4' 'CANOPY_H=0.6' SMOKEVIEW_ID='mcanopy' /
&DEVC XYZ=0.4,0.4,0.5, QUANTITY='TEMPERATURE' PROP_ID='mtree' ORIENTATION=0.0,0.0,1.0/

&PROP ID='mhouse' SMOKEVIEW_PARAMETERS(1:4)='LENGTH=0.2' 'DEPTH=0.2' 'HEIGHT1=0.1' 'HEIGHT2=0.1' SMOKEVIEW_ID='mhouse' /
&DEVC XYZ=1.2,0.4,0.5, QUANTITY='TEMPERATURE' PROP_ID='mhouse' ORIENTATION=0.0,0.0,1.0 /

&OBST XB=0.2,0.4,0.7,0.9,0.0,0.2 /
&VENT XB=0.2,0.4,0.7,0.9,0.2,0.2,SURF_ID='BURNER1' /  fire source 

&OBST XB=1.2,1.4,0.7,0.9,0.0,0.2 /
&VENT XB=1.2,1.4,0.7,0.9,0.2,0.2,SURF_ID='BURNER2' /  fire source 

&OBST XB=0.1,1.5,0.1,1.5,0.0,0.1 /
&OBST XB=0.3,1.3,0.3,1.3,0.1,0.2 /
&OBST XB=0.5,1.1,0.5,1.1,0.2,0.3 /
&OBST XB=0.7,0.9,0.7,0.9,0.3,1.0, NOTERRAIN=.TRUE./

&VENT XB=0.0,1.6,0.0,0.0,0.0,3.2,SURF_ID='OPEN'/
&VENT XB=1.6,1.6,0.0,1.6,0.0,3.2,SURF_ID='OPEN'/
&VENT XB=0.0,1.6,1.6,1.6,0.0,3.2,SURF_ID='OPEN'/
&VENT XB=0.0,0.0,0.0,1.6,0.0,3.2,SURF_ID='OPEN'/
&VENT XB=0.0,1.6,0.0,1.6,3.2,3.2,SURF_ID='OPEN'/

&ISOF QUANTITY='TEMPERATURE',VALUE(1)=100.0 /  Show 3D contours of temperature at 100 C
&ISOF QUANTITY='TEMPERATURE',VALUE(1)=200.0 /  Show 3D contours of temperature at 200 C
&ISOF QUANTITY='TEMPERATURE',VALUE(1)=620.0 /  Show 3D contours of temperature at 620 C
&ISOF QUANTITY='TEMPERATURE',VALUE(1:2)=200.0,400.0 /  Show 3D contours of temperature at 200 C

&SLCF PBX=0.8,QUANTITY='TEMPERATURE',VECTOR=.TRUE. /  Add vector slices colored by temperature
&SLCF PBY=0.8,QUANTITY='TEMPERATURE',VECTOR=.TRUE. /
SLCF PBY=0.8,QUANTITY='fuel' /
SLCF PBY=0.8,QUANTITY='oxygen' /
&SLCF PBZ=0.4,QUANTITY='TEMPERATURE',VECTOR=.TRUE. /
&SLCF PBZ=1.6,QUANTITY='TEMPERATURE',VECTOR=.TRUE. /
&SLCF PBZ=3.2,QUANTITY='TEMPERATURE',VECTOR=.TRUE. /
&SLCF XB=0.0,1.6,0.0,1.6,0.0,3.2, QUANTITY='TEMPERATURE',VECTOR=.TRUE. / 3D slice

&SLCF PBX=0.8,QUANTITY='TEMPERATURE',CELL_CENTERED=.TRUE. / 
&SLCF PBY=0.8,QUANTITY='TEMPERATURE',CELL_CENTERED=.TRUE. /
&SLCF PBZ=0.4,QUANTITY='TEMPERATURE',CELL_CENTERED=.TRUE. /
&SLCF PBZ=1.6,QUANTITY='TEMPERATURE',CELL_CENTERED=.TRUE. /
&SLCF PBZ=3.2,QUANTITY='TEMPERATURE',CELL_CENTERED=.TRUE. /

&BNDF QUANTITY='GAUGE_HEAT_FLUX' /   Common surface quantities. Good for monitoring fire spread.
&BNDF QUANTITY='BURNING_RATE' /
&BNDF QUANTITY='WALL_TEMPERATURE' /
&BNDF QUANTITY='WALL_TEMPERATURE' CELL_CENTERED=.TRUE. /
