&HEAD CHID='vort2d_640_u', &
	TITLE='2D Vortex Simulation, Mesh Size = 640, Measured Value = u' / 

&MESH IJK=640,1,640, XB=-0.155600,0.155600,-0.00048625,0.00048625,-0.155600,0.155600 /

&TIME T_END=0.05, DT=0.0000088914285714, LOCK_TIME_STEP=.TRUE. /

&DUMP DT_DEVC=0.000001 /

&MISC DNS=.TRUE.,
	STRATIFICATION=.FALSE.,
	BAROCLINIC=.FALSE.,
	NOISE=.FALSE.,
	CFL_MAX=0.5,
	GVEC(3)=0.0,
	PERIODIC_TEST=6 /

&SPEC ID='AIR', VISCOSITY=0., BACKGROUND=.TRUE./

&RADI RADIATION=.FALSE./

&SLCF PBY=0.00, QUANTITY='PRESSURE',    CELL_CENTERED=.TRUE. /
&SLCF PBY=0.00, QUANTITY='VELOCITY',    CELL_CENTERED=.TRUE., VECTOR=.TRUE.  /
&SLCF PBY=0.00, QUANTITY='VORTICITY Y', CELL_CENTERED=.TRUE., VECTOR=.TRUE. /

&VENT PBX=-0.155600, SURF_ID='PERIODIC' /
&VENT PBX= 0.155600, SURF_ID='PERIODIC' /
&VENT PBZ=-0.155600, SURF_ID='PERIODIC' /
&VENT PBZ= 0.155600, SURF_ID='PERIODIC' /

  &DEVC ID='Profile', XYZ=-0.031363, 0.000000,-0.031363   QUANTITY='U-VELOCITY' /
  &DEVC ID='Profile', XYZ=-0.030877, 0.000000,-0.031363   QUANTITY='U-VELOCITY' /
  &DEVC ID='Profile', XYZ=-0.030391, 0.000000,-0.031363   QUANTITY='U-VELOCITY' /
  &DEVC ID='Profile', XYZ=-0.029904, 0.000000,-0.031363   QUANTITY='U-VELOCITY' /
  &DEVC ID='Profile', XYZ=-0.029418, 0.000000,-0.031363   QUANTITY='U-VELOCITY' /
  &DEVC ID='Profile', XYZ=-0.028932, 0.000000,-0.031363   QUANTITY='U-VELOCITY' /
  &DEVC ID='Profile', XYZ=-0.028446, 0.000000,-0.031363   QUANTITY='U-VELOCITY' /
  &DEVC ID='Profile', XYZ=-0.027959, 0.000000,-0.031363   QUANTITY='U-VELOCITY' /
  &DEVC ID='Profile', XYZ=-0.027473, 0.000000,-0.031363   QUANTITY='U-VELOCITY' /
  &DEVC ID='Profile', XYZ=-0.026987, 0.000000,-0.031363   QUANTITY='U-VELOCITY' /
  &DEVC ID='Profile', XYZ=-0.026501, 0.000000,-0.031363   QUANTITY='U-VELOCITY' /
  &DEVC ID='Profile', XYZ=-0.026014, 0.000000,-0.031363   QUANTITY='U-VELOCITY' /
  &DEVC ID='Profile', XYZ=-0.025528, 0.000000,-0.031363   QUANTITY='U-VELOCITY' /
  &DEVC ID='Profile', XYZ=-0.025042, 0.000000,-0.031363   QUANTITY='U-VELOCITY' /
  &DEVC ID='Profile', XYZ=-0.024556, 0.000000,-0.031363   QUANTITY='U-VELOCITY' /
  &DEVC ID='Profile', XYZ=-0.024069, 0.000000,-0.031363   QUANTITY='U-VELOCITY' /
  &DEVC ID='Profile', XYZ=-0.023583, 0.000000,-0.031363   QUANTITY='U-VELOCITY' /
  &DEVC ID='Profile', XYZ=-0.023097, 0.000000,-0.031363   QUANTITY='U-VELOCITY' /
  &DEVC ID='Profile', XYZ=-0.022611, 0.000000,-0.031363   QUANTITY='U-VELOCITY' /
  &DEVC ID='Profile', XYZ=-0.022124, 0.000000,-0.031363   QUANTITY='U-VELOCITY' /
  &DEVC ID='Profile', XYZ=-0.021638, 0.000000,-0.031363   QUANTITY='U-VELOCITY' /
  &DEVC ID='Profile', XYZ=-0.021152, 0.000000,-0.031363   QUANTITY='U-VELOCITY' /
  &DEVC ID='Profile', XYZ=-0.020666, 0.000000,-0.031363   QUANTITY='U-VELOCITY' /
  &DEVC ID='Profile', XYZ=-0.020179, 0.000000,-0.031363   QUANTITY='U-VELOCITY' /
  &DEVC ID='Profile', XYZ=-0.019693, 0.000000,-0.031363   QUANTITY='U-VELOCITY' /
  &DEVC ID='Profile', XYZ=-0.019207, 0.000000,-0.031363   QUANTITY='U-VELOCITY' /
  &DEVC ID='Profile', XYZ=-0.018721, 0.000000,-0.031363   QUANTITY='U-VELOCITY' /
  &DEVC ID='Profile', XYZ=-0.018234, 0.000000,-0.031363   QUANTITY='U-VELOCITY' /
  &DEVC ID='Profile', XYZ=-0.017748, 0.000000,-0.031363   QUANTITY='U-VELOCITY' /
  &DEVC ID='Profile', XYZ=-0.017262, 0.000000,-0.031363   QUANTITY='U-VELOCITY' /
  &DEVC ID='Profile', XYZ=-0.016776, 0.000000,-0.031363   QUANTITY='U-VELOCITY' /
  &DEVC ID='Profile', XYZ=-0.016289, 0.000000,-0.031363   QUANTITY='U-VELOCITY' /
  &DEVC ID='Profile', XYZ=-0.015803, 0.000000,-0.031363   QUANTITY='U-VELOCITY' /
  &DEVC ID='Profile', XYZ=-0.015317, 0.000000,-0.031363   QUANTITY='U-VELOCITY' /
  &DEVC ID='Profile', XYZ=-0.014831, 0.000000,-0.031363   QUANTITY='U-VELOCITY' /
  &DEVC ID='Profile', XYZ=-0.014344, 0.000000,-0.031363   QUANTITY='U-VELOCITY' /
  &DEVC ID='Profile', XYZ=-0.013858, 0.000000,-0.031363   QUANTITY='U-VELOCITY' /
  &DEVC ID='Profile', XYZ=-0.013372, 0.000000,-0.031363   QUANTITY='U-VELOCITY' /
  &DEVC ID='Profile', XYZ=-0.012886, 0.000000,-0.031363   QUANTITY='U-VELOCITY' /
  &DEVC ID='Profile', XYZ=-0.012399, 0.000000,-0.031363   QUANTITY='U-VELOCITY' /
  &DEVC ID='Profile', XYZ=-0.011913, 0.000000,-0.031363   QUANTITY='U-VELOCITY' /
  &DEVC ID='Profile', XYZ=-0.011427, 0.000000,-0.031363   QUANTITY='U-VELOCITY' /
  &DEVC ID='Profile', XYZ=-0.010941, 0.000000,-0.031363   QUANTITY='U-VELOCITY' /
  &DEVC ID='Profile', XYZ=-0.010454, 0.000000,-0.031363   QUANTITY='U-VELOCITY' /
  &DEVC ID='Profile', XYZ=-0.009968, 0.000000,-0.031363   QUANTITY='U-VELOCITY' /
  &DEVC ID='Profile', XYZ=-0.009482, 0.000000,-0.031363   QUANTITY='U-VELOCITY' /
  &DEVC ID='Profile', XYZ=-0.008996, 0.000000,-0.031363   QUANTITY='U-VELOCITY' /
  &DEVC ID='Profile', XYZ=-0.008509, 0.000000,-0.031363   QUANTITY='U-VELOCITY' /
  &DEVC ID='Profile', XYZ=-0.008023, 0.000000,-0.031363   QUANTITY='U-VELOCITY' /
  &DEVC ID='Profile', XYZ=-0.007537, 0.000000,-0.031363   QUANTITY='U-VELOCITY' /
  &DEVC ID='Profile', XYZ=-0.007051, 0.000000,-0.031363   QUANTITY='U-VELOCITY' /
  &DEVC ID='Profile', XYZ=-0.006564, 0.000000,-0.031363   QUANTITY='U-VELOCITY' /
  &DEVC ID='Profile', XYZ=-0.006078, 0.000000,-0.031363   QUANTITY='U-VELOCITY' /
  &DEVC ID='Profile', XYZ=-0.005592, 0.000000,-0.031363   QUANTITY='U-VELOCITY' /
  &DEVC ID='Profile', XYZ=-0.005106, 0.000000,-0.031363   QUANTITY='U-VELOCITY' /
  &DEVC ID='Profile', XYZ=-0.004619, 0.000000,-0.031363   QUANTITY='U-VELOCITY' /
  &DEVC ID='Profile', XYZ=-0.004133, 0.000000,-0.031363   QUANTITY='U-VELOCITY' /
  &DEVC ID='Profile', XYZ=-0.003647, 0.000000,-0.031363   QUANTITY='U-VELOCITY' /
  &DEVC ID='Profile', XYZ=-0.003161, 0.000000,-0.031363   QUANTITY='U-VELOCITY' /
  &DEVC ID='Profile', XYZ=-0.002674, 0.000000,-0.031363   QUANTITY='U-VELOCITY' /
  &DEVC ID='Profile', XYZ=-0.002188, 0.000000,-0.031363   QUANTITY='U-VELOCITY' /
  &DEVC ID='Profile', XYZ=-0.001702, 0.000000,-0.031363   QUANTITY='U-VELOCITY' /
  &DEVC ID='Profile', XYZ=-0.001216, 0.000000,-0.031363   QUANTITY='U-VELOCITY' /
  &DEVC ID='Profile', XYZ=-0.000729, 0.000000,-0.031363   QUANTITY='U-VELOCITY' /
  &DEVC ID='Profile', XYZ=-0.000243, 0.000000,-0.031363   QUANTITY='U-VELOCITY' /
  &DEVC ID='Profile', XYZ= 0.000243, 0.000000,-0.031363   QUANTITY='U-VELOCITY' /
  &DEVC ID='Profile', XYZ= 0.000729, 0.000000,-0.031363   QUANTITY='U-VELOCITY' /
  &DEVC ID='Profile', XYZ= 0.001216, 0.000000,-0.031363   QUANTITY='U-VELOCITY' /
  &DEVC ID='Profile', XYZ= 0.001702, 0.000000,-0.031363   QUANTITY='U-VELOCITY' /
  &DEVC ID='Profile', XYZ= 0.002188, 0.000000,-0.031363   QUANTITY='U-VELOCITY' /
  &DEVC ID='Profile', XYZ= 0.002674, 0.000000,-0.031363   QUANTITY='U-VELOCITY' /
  &DEVC ID='Profile', XYZ= 0.003161, 0.000000,-0.031363   QUANTITY='U-VELOCITY' /
  &DEVC ID='Profile', XYZ= 0.003647, 0.000000,-0.031363   QUANTITY='U-VELOCITY' /
  &DEVC ID='Profile', XYZ= 0.004133, 0.000000,-0.031363   QUANTITY='U-VELOCITY' /
  &DEVC ID='Profile', XYZ= 0.004619, 0.000000,-0.031363   QUANTITY='U-VELOCITY' /
  &DEVC ID='Profile', XYZ= 0.005106, 0.000000,-0.031363   QUANTITY='U-VELOCITY' /
  &DEVC ID='Profile', XYZ= 0.005592, 0.000000,-0.031363   QUANTITY='U-VELOCITY' /
  &DEVC ID='Profile', XYZ= 0.006078, 0.000000,-0.031363   QUANTITY='U-VELOCITY' /
  &DEVC ID='Profile', XYZ= 0.006564, 0.000000,-0.031363   QUANTITY='U-VELOCITY' /
  &DEVC ID='Profile', XYZ= 0.007051, 0.000000,-0.031363   QUANTITY='U-VELOCITY' /
  &DEVC ID='Profile', XYZ= 0.007537, 0.000000,-0.031363   QUANTITY='U-VELOCITY' /
  &DEVC ID='Profile', XYZ= 0.008023, 0.000000,-0.031363   QUANTITY='U-VELOCITY' /
  &DEVC ID='Profile', XYZ= 0.008509, 0.000000,-0.031363   QUANTITY='U-VELOCITY' /
  &DEVC ID='Profile', XYZ= 0.008996, 0.000000,-0.031363   QUANTITY='U-VELOCITY' /
  &DEVC ID='Profile', XYZ= 0.009482, 0.000000,-0.031363   QUANTITY='U-VELOCITY' /
  &DEVC ID='Profile', XYZ= 0.009968, 0.000000,-0.031363   QUANTITY='U-VELOCITY' /
  &DEVC ID='Profile', XYZ= 0.010454, 0.000000,-0.031363   QUANTITY='U-VELOCITY' /
  &DEVC ID='Profile', XYZ= 0.010941, 0.000000,-0.031363   QUANTITY='U-VELOCITY' /
  &DEVC ID='Profile', XYZ= 0.011427, 0.000000,-0.031363   QUANTITY='U-VELOCITY' /
  &DEVC ID='Profile', XYZ= 0.011913, 0.000000,-0.031363   QUANTITY='U-VELOCITY' /
  &DEVC ID='Profile', XYZ= 0.012399, 0.000000,-0.031363   QUANTITY='U-VELOCITY' /
  &DEVC ID='Profile', XYZ= 0.012886, 0.000000,-0.031363   QUANTITY='U-VELOCITY' /
  &DEVC ID='Profile', XYZ= 0.013372, 0.000000,-0.031363   QUANTITY='U-VELOCITY' /
  &DEVC ID='Profile', XYZ= 0.013858, 0.000000,-0.031363   QUANTITY='U-VELOCITY' /
  &DEVC ID='Profile', XYZ= 0.014344, 0.000000,-0.031363   QUANTITY='U-VELOCITY' /
  &DEVC ID='Profile', XYZ= 0.014831, 0.000000,-0.031363   QUANTITY='U-VELOCITY' /
  &DEVC ID='Profile', XYZ= 0.015317, 0.000000,-0.031363   QUANTITY='U-VELOCITY' /
  &DEVC ID='Profile', XYZ= 0.015803, 0.000000,-0.031363   QUANTITY='U-VELOCITY' /
  &DEVC ID='Profile', XYZ= 0.016289, 0.000000,-0.031363   QUANTITY='U-VELOCITY' /
  &DEVC ID='Profile', XYZ= 0.016776, 0.000000,-0.031363   QUANTITY='U-VELOCITY' /
  &DEVC ID='Profile', XYZ= 0.017262, 0.000000,-0.031363   QUANTITY='U-VELOCITY' /
  &DEVC ID='Profile', XYZ= 0.017748, 0.000000,-0.031363   QUANTITY='U-VELOCITY' /
  &DEVC ID='Profile', XYZ= 0.018234, 0.000000,-0.031363   QUANTITY='U-VELOCITY' /
  &DEVC ID='Profile', XYZ= 0.018721, 0.000000,-0.031363   QUANTITY='U-VELOCITY' /
  &DEVC ID='Profile', XYZ= 0.019207, 0.000000,-0.031363   QUANTITY='U-VELOCITY' /
  &DEVC ID='Profile', XYZ= 0.019693, 0.000000,-0.031363   QUANTITY='U-VELOCITY' /
  &DEVC ID='Profile', XYZ= 0.020179, 0.000000,-0.031363   QUANTITY='U-VELOCITY' /
  &DEVC ID='Profile', XYZ= 0.020666, 0.000000,-0.031363   QUANTITY='U-VELOCITY' /
  &DEVC ID='Profile', XYZ= 0.021152, 0.000000,-0.031363   QUANTITY='U-VELOCITY' /
  &DEVC ID='Profile', XYZ= 0.021638, 0.000000,-0.031363   QUANTITY='U-VELOCITY' /
  &DEVC ID='Profile', XYZ= 0.022124, 0.000000,-0.031363   QUANTITY='U-VELOCITY' /
  &DEVC ID='Profile', XYZ= 0.022611, 0.000000,-0.031363   QUANTITY='U-VELOCITY' /
  &DEVC ID='Profile', XYZ= 0.023097, 0.000000,-0.031363   QUANTITY='U-VELOCITY' /
  &DEVC ID='Profile', XYZ= 0.023583, 0.000000,-0.031363   QUANTITY='U-VELOCITY' /
  &DEVC ID='Profile', XYZ= 0.024069, 0.000000,-0.031363   QUANTITY='U-VELOCITY' /
  &DEVC ID='Profile', XYZ= 0.024556, 0.000000,-0.031363   QUANTITY='U-VELOCITY' /
  &DEVC ID='Profile', XYZ= 0.025042, 0.000000,-0.031363   QUANTITY='U-VELOCITY' /
  &DEVC ID='Profile', XYZ= 0.025528, 0.000000,-0.031363   QUANTITY='U-VELOCITY' /
  &DEVC ID='Profile', XYZ= 0.026014, 0.000000,-0.031363   QUANTITY='U-VELOCITY' /
  &DEVC ID='Profile', XYZ= 0.026501, 0.000000,-0.031363   QUANTITY='U-VELOCITY' /
  &DEVC ID='Profile', XYZ= 0.026987, 0.000000,-0.031363   QUANTITY='U-VELOCITY' /
  &DEVC ID='Profile', XYZ= 0.027473, 0.000000,-0.031363   QUANTITY='U-VELOCITY' /
  &DEVC ID='Profile', XYZ= 0.027959, 0.000000,-0.031363   QUANTITY='U-VELOCITY' /
  &DEVC ID='Profile', XYZ= 0.028446, 0.000000,-0.031363   QUANTITY='U-VELOCITY' /
  &DEVC ID='Profile', XYZ= 0.028932, 0.000000,-0.031363   QUANTITY='U-VELOCITY' /
  &DEVC ID='Profile', XYZ= 0.029418, 0.000000,-0.031363   QUANTITY='U-VELOCITY' /
  &DEVC ID='Profile', XYZ= 0.029904, 0.000000,-0.031363   QUANTITY='U-VELOCITY' /
  &DEVC ID='Profile', XYZ= 0.030391, 0.000000,-0.031363   QUANTITY='U-VELOCITY' /
  &DEVC ID='Profile', XYZ= 0.030877, 0.000000,-0.031363   QUANTITY='U-VELOCITY' /
  &DEVC ID='Profile', XYZ=-0.031363, 0.000000,-0.030877   QUANTITY='U-VELOCITY' /
  &DEVC ID='Profile', XYZ=-0.030877, 0.000000,-0.030877   QUANTITY='U-VELOCITY' /
  &DEVC ID='Profile', XYZ=-0.030391, 0.000000,-0.030877   QUANTITY='U-VELOCITY' /
  &DEVC ID='Profile', XYZ=-0.029904, 0.000000,-0.030877   QUANTITY='U-VELOCITY' /
  &DEVC ID='Profile', XYZ=-0.029418, 0.000000,-0.030877   QUANTITY='U-VELOCITY' /
  &DEVC ID='Profile', XYZ=-0.028932, 0.000000,-0.030877   QUANTITY='U-VELOCITY' /
  &DEVC ID='Profile', XYZ=-0.028446, 0.000000,-0.030877   QUANTITY='U-VELOCITY' /
  &DEVC ID='Profile', XYZ=-0.027959, 0.000000,-0.030877   QUANTITY='U-VELOCITY' /
  &DEVC ID='Profile', XYZ=-0.027473, 0.000000,-0.030877   QUANTITY='U-VELOCITY' /
  &DEVC ID='Profile', XYZ=-0.026987, 0.000000,-0.030877   QUANTITY='U-VELOCITY' /
  &DEVC ID='Profile', XYZ=-0.026501, 0.000000,-0.030877   QUANTITY='U-VELOCITY' /
  &DEVC ID='Profile', XYZ=-0.026014, 0.000000,-0.030877   QUANTITY='U-VELOCITY' /
  &DEVC ID='Profile', XYZ=-0.025528, 0.000000,-0.030877   QUANTITY='U-VELOCITY' /
  &DEVC ID='Profile', XYZ=-0.025042, 0.000000,-0.030877   QUANTITY='U-VELOCITY' /
  &DEVC ID='Profile', XYZ=-0.024556, 0.000000,-0.030877   QUANTITY='U-VELOCITY' /
  &DEVC ID='Profile', XYZ=-0.024069, 0.000000,-0.030877   QUANTITY='U-VELOCITY' /
  &DEVC ID='Profile', XYZ=-0.023583, 0.000000,-0.030877   QUANTITY='U-VELOCITY' /
  &DEVC ID='Profile', XYZ=-0.023097, 0.000000,-0.030877   QUANTITY='U-VELOCITY' /
  &DEVC ID='Profile', XYZ=-0.022611, 0.000000,-0.030877   QUANTITY='U-VELOCITY' /
  &DEVC ID='Profile', XYZ=-0.022124, 0.000000,-0.030877   QUANTITY='U-VELOCITY' /
  &DEVC ID='Profile', XYZ=-0.021638, 0.000000,-0.030877   QUANTITY='U-VELOCITY' /
  &DEVC ID='Profile', XYZ=-0.021152, 0.000000,-0.030877   QUANTITY='U-VELOCITY' /
  &DEVC ID='Profile', XYZ=-0.020666, 0.000000,-0.030877   QUANTITY='U-VELOCITY' /
  &DEVC ID='Profile', XYZ=-0.020179, 0.000000,-0.030877   QUANTITY='U-VELOCITY' /
  &DEVC ID='Profile', XYZ=-0.019693, 0.000000,-0.030877   QUANTITY='U-VELOCITY' /
  &DEVC ID='Profile', XYZ=-0.019207, 0.000000,-0.030877   QUANTITY='U-VELOCITY' /
  &DEVC ID='Profile', XYZ=-0.018721, 0.000000,-0.030877   QUANTITY='U-VELOCITY' /
  &DEVC ID='Profile', XYZ=-0.018234, 0.000000,-0.030877   QUANTITY='U-VELOCITY' /
  &DEVC ID='Profile', XYZ=-0.017748, 0.000000,-0.030877   QUANTITY='U-VELOCITY' /
  &DEVC ID='Profile', XYZ=-0.017262, 0.000000,-0.030877   QUANTITY='U-VELOCITY' /
  &DEVC ID='Profile', XYZ=-0.016776, 0.000000,-0.030877   QUANTITY='U-VELOCITY' /
  &DEVC ID='Profile', XYZ=-0.016289, 0.000000,-0.030877   QUANTITY='U-VELOCITY' /
  &DEVC ID='Profile', XYZ=-0.015803, 0.000000,-0.030877   QUANTITY='U-VELOCITY' /
  &DEVC ID='Profile', XYZ=-0.015317, 0.000000,-0.030877   QUANTITY='U-VELOCITY' /
  &DEVC ID='Profile', XYZ=-0.014831, 0.000000,-0.030877   QUANTITY='U-VELOCITY' /
  &DEVC ID='Profile', XYZ=-0.014344, 0.000000,-0.030877   QUANTITY='U-VELOCITY' /
  &DEVC ID='Profile', XYZ=-0.013858, 0.000000,-0.030877   QUANTITY='U-VELOCITY' /
  &DEVC ID='Profile', XYZ=-0.013372, 0.000000,-0.030877   QUANTITY='U-VELOCITY' /
  &DEVC ID='Profile', XYZ=-0.012886, 0.000000,-0.030877   QUANTITY='U-VELOCITY' /
  &DEVC ID='Profile', XYZ=-0.012399, 0.000000,-0.030877   QUANTITY='U-VELOCITY' /
  &DEVC ID='Profile', XYZ=-0.011913, 0.000000,-0.030877   QUANTITY='U-VELOCITY' /
  &DEVC ID='Profile', XYZ=-0.011427, 0.000000,-0.030877   QUANTITY='U-VELOCITY' /
  &DEVC ID='Profile', XYZ=-0.010941, 0.000000,-0.030877   QUANTITY='U-VELOCITY' /
  &DEVC ID='Profile', XYZ=-0.010454, 0.000000,-0.030877   QUANTITY='U-VELOCITY' /
  &DEVC ID='Profile', XYZ=-0.009968, 0.000000,-0.030877   QUANTITY='U-VELOCITY' /
  &DEVC ID='Profile', XYZ=-0.009482, 0.000000,-0.030877   QUANTITY='U-VELOCITY' /
  &DEVC ID='Profile', XYZ=-0.008996, 0.000000,-0.030877   QUANTITY='U-VELOCITY' /
  &DEVC ID='Profile', XYZ=-0.008509, 0.000000,-0.030877   QUANTITY='U-VELOCITY' /
  &DEVC ID='Profile', XYZ=-0.008023, 0.000000,-0.030877   QUANTITY='U-VELOCITY' /
  &DEVC ID='Profile', XYZ=-0.007537, 0.000000,-0.030877   QUANTITY='U-VELOCITY' /
  &DEVC ID='Profile', XYZ=-0.007051, 0.000000,-0.030877   QUANTITY='U-VELOCITY' /
  &DEVC ID='Profile', XYZ=-0.006564, 0.000000,-0.030877   QUANTITY='U-VELOCITY' /
  &DEVC ID='Profile', XYZ=-0.006078, 0.000000,-0.030877   QUANTITY='U-VELOCITY' /
  &DEVC ID='Profile', XYZ=-0.005592, 0.000000,-0.030877   QUANTITY='U-VELOCITY' /
  &DEVC ID='Profile', XYZ=-0.005106, 0.000000,-0.030877   QUANTITY='U-VELOCITY' /
  &DEVC ID='Profile', XYZ=-0.004619, 0.000000,-0.030877   QUANTITY='U-VELOCITY' /
  &DEVC ID='Profile', XYZ=-0.004133, 0.000000,-0.030877   QUANTITY='U-VELOCITY' /
  &DEVC ID='Profile', XYZ=-0.003647, 0.000000,-0.030877   QUANTITY='U-VELOCITY' /
  &DEVC ID='Profile', XYZ=-0.003161, 0.000000,-0.030877   QUANTITY='U-VELOCITY' /
  &DEVC ID='Profile', XYZ=-0.002674, 0.000000,-0.030877   QUANTITY='U-VELOCITY' /
  &DEVC ID='Profile', XYZ=-0.002188, 0.000000,-0.030877   QUANTITY='U-VELOCITY' /
  &DEVC ID='Profile', XYZ=-0.001702, 0.000000,-0.030877   QUANTITY='U-VELOCITY' /
  &DEVC ID='Profile', XYZ=-0.001216, 0.000000,-0.030877   QUANTITY='U-VELOCITY' /
  &DEVC ID='Profile', XYZ=-0.000729, 0.000000,-0.030877   QUANTITY='U-VELOCITY' /
  &DEVC ID='Profile', XYZ=-0.000243, 0.000000,-0.030877   QUANTITY='U-VELOCITY' /
  &DEVC ID='Profile', XYZ= 0.000243, 0.000000,-0.030877   QUANTITY='U-VELOCITY' /
  &DEVC ID='Profile', XYZ= 0.000729, 0.000000,-0.030877   QUANTITY='U-VELOCITY' /
  &DEVC ID='Profile', XYZ= 0.001216, 0.000000,-0.030877   QUANTITY='U-VELOCITY' /
  &DEVC ID='Profile', XYZ= 0.001702, 0.000000,-0.030877   QUANTITY='U-VELOCITY' /
  &DEVC ID='Profile', XYZ= 0.002188, 0.000000,-0.030877   QUANTITY='U-VELOCITY' /
  &DEVC ID='Profile', XYZ= 0.002674, 0.000000,-0.030877   QUANTITY='U-VELOCITY' /
  &DEVC ID='Profile', XYZ= 0.003161, 0.000000,-0.030877   QUANTITY='U-VELOCITY' /
  &DEVC ID='Profile', XYZ= 0.003647, 0.000000,-0.030877   QUANTITY='U-VELOCITY' /
  &DEVC ID='Profile', XYZ= 0.004133, 0.000000,-0.030877   QUANTITY='U-VELOCITY' /
  &DEVC ID='Profile', XYZ= 0.004619, 0.000000,-0.030877   QUANTITY='U-VELOCITY' /
  &DEVC ID='Profile', XYZ= 0.005106, 0.000000,-0.030877   QUANTITY='U-VELOCITY' /
  &DEVC ID='Profile', XYZ= 0.005592, 0.000000,-0.030877   QUANTITY='U-VELOCITY' /
  &DEVC ID='Profile', XYZ= 0.006078, 0.000000,-0.030877   QUANTITY='U-VELOCITY' /
  &DEVC ID='Profile', XYZ= 0.006564, 0.000000,-0.030877   QUANTITY='U-VELOCITY' /
  &DEVC ID='Profile', XYZ= 0.007051, 0.000000,-0.030877   QUANTITY='U-VELOCITY' /
  &DEVC ID='Profile', XYZ= 0.007537, 0.000000,-0.030877   QUANTITY='U-VELOCITY' /
  &DEVC ID='Profile', XYZ= 0.008023, 0.000000,-0.030877   QUANTITY='U-VELOCITY' /
  &DEVC ID='Profile', XYZ= 0.008509, 0.000000,-0.030877   QUANTITY='U-VELOCITY' /
  &DEVC ID='Profile', XYZ= 0.008996, 0.000000,-0.030877   QUANTITY='U-VELOCITY' /
  &DEVC ID='Profile', XYZ= 0.009482, 0.000000,-0.030877   QUANTITY='U-VELOCITY' /
  &DEVC ID='Profile', XYZ= 0.009968, 0.000000,-0.030877   QUANTITY='U-VELOCITY' /
  &DEVC ID='Profile', XYZ= 0.010454, 0.000000,-0.030877   QUANTITY='U-VELOCITY' /
  &DEVC ID='Profile', XYZ= 0.010941, 0.000000,-0.030877   QUANTITY='U-VELOCITY' /
  &DEVC ID='Profile', XYZ= 0.011427, 0.000000,-0.030877   QUANTITY='U-VELOCITY' /
  &DEVC ID='Profile', XYZ= 0.011913, 0.000000,-0.030877   QUANTITY='U-VELOCITY' /
  &DEVC ID='Profile', XYZ= 0.012399, 0.000000,-0.030877   QUANTITY='U-VELOCITY' /
  &DEVC ID='Profile', XYZ= 0.012886, 0.000000,-0.030877   QUANTITY='U-VELOCITY' /
  &DEVC ID='Profile', XYZ= 0.013372, 0.000000,-0.030877   QUANTITY='U-VELOCITY' /
  &DEVC ID='Profile', XYZ= 0.013858, 0.000000,-0.030877   QUANTITY='U-VELOCITY' /
  &DEVC ID='Profile', XYZ= 0.014344, 0.000000,-0.030877   QUANTITY='U-VELOCITY' /
  &DEVC ID='Profile', XYZ= 0.014831, 0.000000,-0.030877   QUANTITY='U-VELOCITY' /
  &DEVC ID='Profile', XYZ= 0.015317, 0.000000,-0.030877   QUANTITY='U-VELOCITY' /
  &DEVC ID='Profile', XYZ= 0.015803, 0.000000,-0.030877   QUANTITY='U-VELOCITY' /
  &DEVC ID='Profile', XYZ= 0.016289, 0.000000,-0.030877   QUANTITY='U-VELOCITY' /
  &DEVC ID='Profile', XYZ= 0.016776, 0.000000,-0.030877   QUANTITY='U-VELOCITY' /
  &DEVC ID='Profile', XYZ= 0.017262, 0.000000,-0.030877   QUANTITY='U-VELOCITY' /
  &DEVC ID='Profile', XYZ= 0.017748, 0.000000,-0.030877   QUANTITY='U-VELOCITY' /
  &DEVC ID='Profile', XYZ= 0.018234, 0.000000,-0.030877   QUANTITY='U-VELOCITY' /
  &DEVC ID='Profile', XYZ= 0.018721, 0.000000,-0.030877   QUANTITY='U-VELOCITY' /
  &DEVC ID='Profile', XYZ= 0.019207, 0.000000,-0.030877   QUANTITY='U-VELOCITY' /
  &DEVC ID='Profile', XYZ= 0.019693, 0.000000,-0.030877   QUANTITY='U-VELOCITY' /
  &DEVC ID='Profile', XYZ= 0.020179, 0.000000,-0.030877   QUANTITY='U-VELOCITY' /
  &DEVC ID='Profile', XYZ= 0.020666, 0.000000,-0.030877   QUANTITY='U-VELOCITY' /
  &DEVC ID='Profile', XYZ= 0.021152, 0.000000,-0.030877   QUANTITY='U-VELOCITY' /
  &DEVC ID='Profile', XYZ= 0.021638, 0.000000,-0.030877   QUANTITY='U-VELOCITY' /
  &DEVC ID='Profile', XYZ= 0.022124, 0.000000,-0.030877   QUANTITY='U-VELOCITY' /
  &DEVC ID='Profile', XYZ= 0.022611, 0.000000,-0.030877   QUANTITY='U-VELOCITY' /
  &DEVC ID='Profile', XYZ= 0.023097, 0.000000,-0.030877   QUANTITY='U-VELOCITY' /
  &DEVC ID='Profile', XYZ= 0.023583, 0.000000,-0.030877   QUANTITY='U-VELOCITY' /
  &DEVC ID='Profile', XYZ= 0.024069, 0.000000,-0.030877   QUANTITY='U-VELOCITY' /
  &DEVC ID='Profile', XYZ= 0.024556, 0.000000,-0.030877   QUANTITY='U-VELOCITY' /
  &DEVC ID='Profile', XYZ= 0.025042, 0.000000,-0.030877   QUANTITY='U-VELOCITY' /
  &DEVC ID='Profile', XYZ= 0.025528, 0.000000,-0.030877   QUANTITY='U-VELOCITY' /
  &DEVC ID='Profile', XYZ= 0.026014, 0.000000,-0.030877   QUANTITY='U-VELOCITY' /
  &DEVC ID='Profile', XYZ= 0.026501, 0.000000,-0.030877   QUANTITY='U-VELOCITY' /
  &DEVC ID='Profile', XYZ= 0.026987, 0.000000,-0.030877   QUANTITY='U-VELOCITY' /
  &DEVC ID='Profile', XYZ= 0.027473, 0.000000,-0.030877   QUANTITY='U-VELOCITY' /
  &DEVC ID='Profile', XYZ= 0.027959, 0.000000,-0.030877   QUANTITY='U-VELOCITY' /
  &DEVC ID='Profile', XYZ= 0.028446, 0.000000,-0.030877   QUANTITY='U-VELOCITY' /
  &DEVC ID='Profile', XYZ= 0.028932, 0.000000,-0.030877   QUANTITY='U-VELOCITY' /
  &DEVC ID='Profile', XYZ= 0.029418, 0.000000,-0.030877   QUANTITY='U-VELOCITY' /
  &DEVC ID='Profile', XYZ= 0.029904, 0.000000,-0.030877   QUANTITY='U-VELOCITY' /
  &DEVC ID='Profile', XYZ= 0.030391, 0.000000,-0.030877   QUANTITY='U-VELOCITY' /
  &DEVC ID='Profile', XYZ= 0.030877, 0.000000,-0.030877   QUANTITY='U-VELOCITY' /
  &DEVC ID='Profile', XYZ=-0.031363, 0.000000,-0.030391   QUANTITY='U-VELOCITY' /
  &DEVC ID='Profile', XYZ=-0.030877, 0.000000,-0.030391   QUANTITY='U-VELOCITY' /
  &DEVC ID='Profile', XYZ=-0.030391, 0.000000,-0.030391   QUANTITY='U-VELOCITY' /
  &DEVC ID='Profile', XYZ=-0.029904, 0.000000,-0.030391   QUANTITY='U-VELOCITY' /
  &DEVC ID='Profile', XYZ=-0.029418, 0.000000,-0.030391   QUANTITY='U-VELOCITY' /
  &DEVC ID='Profile', XYZ=-0.028932, 0.000000,-0.030391   QUANTITY='U-VELOCITY' /
  &DEVC ID='Profile', XYZ=-0.028446, 0.000000,-0.030391   QUANTITY='U-VELOCITY' /
  &DEVC ID='Profile', XYZ=-0.027959, 0.000000,-0.030391   QUANTITY='U-VELOCITY' /
  &DEVC ID='Profile', XYZ=-0.027473, 0.000000,-0.030391   QUANTITY='U-VELOCITY' /
  &DEVC ID='Profile', XYZ=-0.026987, 0.000000,-0.030391   QUANTITY='U-VELOCITY' /
  &DEVC ID='Profile', XYZ=-0.026501, 0.000000,-0.030391   QUANTITY='U-VELOCITY' /
  &DEVC ID='Profile', XYZ=-0.026014, 0.000000,-0.030391   QUANTITY='U-VELOCITY' /
  &DEVC ID='Profile', XYZ=-0.025528, 0.000000,-0.030391   QUANTITY='U-VELOCITY' /
  &DEVC ID='Profile', XYZ=-0.025042, 0.000000,-0.030391   QUANTITY='U-VELOCITY' /
  &DEVC ID='Profile', XYZ=-0.024556, 0.000000,-0.030391   QUANTITY='U-VELOCITY' /
  &DEVC ID='Profile', XYZ=-0.024069, 0.000000,-0.030391   QUANTITY='U-VELOCITY' /
  &DEVC ID='Profile', XYZ=-0.023583, 0.000000,-0.030391   QUANTITY='U-VELOCITY' /
  &DEVC ID='Profile', XYZ=-0.023097, 0.000000,-0.030391   QUANTITY='U-VELOCITY' /
  &DEVC ID='Profile', XYZ=-0.022611, 0.000000,-0.030391   QUANTITY='U-VELOCITY' /
  &DEVC ID='Profile', XYZ=-0.022124, 0.000000,-0.030391   QUANTITY='U-VELOCITY' /
  &DEVC ID='Profile', XYZ=-0.021638, 0.000000,-0.030391   QUANTITY='U-VELOCITY' /
  &DEVC ID='Profile', XYZ=-0.021152, 0.000000,-0.030391   QUANTITY='U-VELOCITY' /
  &DEVC ID='Profile', XYZ=-0.020666, 0.000000,-0.030391   QUANTITY='U-VELOCITY' /
  &DEVC ID='Profile', XYZ=-0.020179, 0.000000,-0.030391   QUANTITY='U-VELOCITY' /
  &DEVC ID='Profile', XYZ=-0.019693, 0.000000,-0.030391   QUANTITY='U-VELOCITY' /
  &DEVC ID='Profile', XYZ=-0.019207, 0.000000,-0.030391   QUANTITY='U-VELOCITY' /
  &DEVC ID='Profile', XYZ=-0.018721, 0.000000,-0.030391   QUANTITY='U-VELOCITY' /
  &DEVC ID='Profile', XYZ=-0.018234, 0.000000,-0.030391   QUANTITY='U-VELOCITY' /
  &DEVC ID='Profile', XYZ=-0.017748, 0.000000,-0.030391   QUANTITY='U-VELOCITY' /
  &DEVC ID='Profile', XYZ=-0.017262, 0.000000,-0.030391   QUANTITY='U-VELOCITY' /
  &DEVC ID='Profile', XYZ=-0.016776, 0.000000,-0.030391   QUANTITY='U-VELOCITY' /
  &DEVC ID='Profile', XYZ=-0.016289, 0.000000,-0.030391   QUANTITY='U-VELOCITY' /
  &DEVC ID='Profile', XYZ=-0.015803, 0.000000,-0.030391   QUANTITY='U-VELOCITY' /
  &DEVC ID='Profile', XYZ=-0.015317, 0.000000,-0.030391   QUANTITY='U-VELOCITY' /
  &DEVC ID='Profile', XYZ=-0.014831, 0.000000,-0.030391   QUANTITY='U-VELOCITY' /
  &DEVC ID='Profile', XYZ=-0.014344, 0.000000,-0.030391   QUANTITY='U-VELOCITY' /
  &DEVC ID='Profile', XYZ=-0.013858, 0.000000,-0.030391   QUANTITY='U-VELOCITY' /
  &DEVC ID='Profile', XYZ=-0.013372, 0.000000,-0.030391   QUANTITY='U-VELOCITY' /
  &DEVC ID='Profile', XYZ=-0.012886, 0.000000,-0.030391   QUANTITY='U-VELOCITY' /
  &DEVC ID='Profile', XYZ=-0.012399, 0.000000,-0.030391   QUANTITY='U-VELOCITY' /
  &DEVC ID='Profile', XYZ=-0.011913, 0.000000,-0.030391   QUANTITY='U-VELOCITY' /
  &DEVC ID='Profile', XYZ=-0.011427, 0.000000,-0.030391   QUANTITY='U-VELOCITY' /
  &DEVC ID='Profile', XYZ=-0.010941, 0.000000,-0.030391   QUANTITY='U-VELOCITY' /
  &DEVC ID='Profile', XYZ=-0.010454, 0.000000,-0.030391   QUANTITY='U-VELOCITY' /
  &DEVC ID='Profile', XYZ=-0.009968, 0.000000,-0.030391   QUANTITY='U-VELOCITY' /
  &DEVC ID='Profile', XYZ=-0.009482, 0.000000,-0.030391   QUANTITY='U-VELOCITY' /
  &DEVC ID='Profile', XYZ=-0.008996, 0.000000,-0.030391   QUANTITY='U-VELOCITY' /
  &DEVC ID='Profile', XYZ=-0.008509, 0.000000,-0.030391   QUANTITY='U-VELOCITY' /
  &DEVC ID='Profile', XYZ=-0.008023, 0.000000,-0.030391   QUANTITY='U-VELOCITY' /
  &DEVC ID='Profile', XYZ=-0.007537, 0.000000,-0.030391   QUANTITY='U-VELOCITY' /
  &DEVC ID='Profile', XYZ=-0.007051, 0.000000,-0.030391   QUANTITY='U-VELOCITY' /
  &DEVC ID='Profile', XYZ=-0.006564, 0.000000,-0.030391   QUANTITY='U-VELOCITY' /
  &DEVC ID='Profile', XYZ=-0.006078, 0.000000,-0.030391   QUANTITY='U-VELOCITY' /
  &DEVC ID='Profile', XYZ=-0.005592, 0.000000,-0.030391   QUANTITY='U-VELOCITY' /
  &DEVC ID='Profile', XYZ=-0.005106, 0.000000,-0.030391   QUANTITY='U-VELOCITY' /
  &DEVC ID='Profile', XYZ=-0.004619, 0.000000,-0.030391   QUANTITY='U-VELOCITY' /
  &DEVC ID='Profile', XYZ=-0.004133, 0.000000,-0.030391   QUANTITY='U-VELOCITY' /
  &DEVC ID='Profile', XYZ=-0.003647, 0.000000,-0.030391   QUANTITY='U-VELOCITY' /
  &DEVC ID='Profile', XYZ=-0.003161, 0.000000,-0.030391   QUANTITY='U-VELOCITY' /
  &DEVC ID='Profile', XYZ=-0.002674, 0.000000,-0.030391   QUANTITY='U-VELOCITY' /
  &DEVC ID='Profile', XYZ=-0.002188, 0.000000,-0.030391   QUANTITY='U-VELOCITY' /
  &DEVC ID='Profile', XYZ=-0.001702, 0.000000,-0.030391   QUANTITY='U-VELOCITY' /
  &DEVC ID='Profile', XYZ=-0.001216, 0.000000,-0.030391   QUANTITY='U-VELOCITY' /
  &DEVC ID='Profile', XYZ=-0.000729, 0.000000,-0.030391   QUANTITY='U-VELOCITY' /
  &DEVC ID='Profile', XYZ=-0.000243, 0.000000,-0.030391   QUANTITY='U-VELOCITY' /
  &DEVC ID='Profile', XYZ= 0.000243, 0.000000,-0.030391   QUANTITY='U-VELOCITY' /
  &DEVC ID='Profile', XYZ= 0.000729, 0.000000,-0.030391   QUANTITY='U-VELOCITY' /
  &DEVC ID='Profile', XYZ= 0.001216, 0.000000,-0.030391   QUANTITY='U-VELOCITY' /
  &DEVC ID='Profile', XYZ= 0.001702, 0.000000,-0.030391   QUANTITY='U-VELOCITY' /
  &DEVC ID='Profile', XYZ= 0.002188, 0.000000,-0.030391   QUANTITY='U-VELOCITY' /
  &DEVC ID='Profile', XYZ= 0.002674, 0.000000,-0.030391   QUANTITY='U-VELOCITY' /
  &DEVC ID='Profile', XYZ= 0.003161, 0.000000,-0.030391   QUANTITY='U-VELOCITY' /
  &DEVC ID='Profile', XYZ= 0.003647, 0.000000,-0.030391   QUANTITY='U-VELOCITY' /
  &DEVC ID='Profile', XYZ= 0.004133, 0.000000,-0.030391   QUANTITY='U-VELOCITY' /
  &DEVC ID='Profile', XYZ= 0.004619, 0.000000,-0.030391   QUANTITY='U-VELOCITY' /
  &DEVC ID='Profile', XYZ= 0.005106, 0.000000,-0.030391   QUANTITY='U-VELOCITY' /
  &DEVC ID='Profile', XYZ= 0.005592, 0.000000,-0.030391   QUANTITY='U-VELOCITY' /
  &DEVC ID='Profile', XYZ= 0.006078, 0.000000,-0.030391   QUANTITY='U-VELOCITY' /
  &DEVC ID='Profile', XYZ= 0.006564, 0.000000,-0.030391   QUANTITY='U-VELOCITY' /
  &DEVC ID='Profile', XYZ= 0.007051, 0.000000,-0.030391   QUANTITY='U-VELOCITY' /
  &DEVC ID='Profile', XYZ= 0.007537, 0.000000,-0.030391   QUANTITY='U-VELOCITY' /
  &DEVC ID='Profile', XYZ= 0.008023, 0.000000,-0.030391   QUANTITY='U-VELOCITY' /
  &DEVC ID='Profile', XYZ= 0.008509, 0.000000,-0.030391   QUANTITY='U-VELOCITY' /
  &DEVC ID='Profile', XYZ= 0.008996, 0.000000,-0.030391   QUANTITY='U-VELOCITY' /
  &DEVC ID='Profile', XYZ= 0.009482, 0.000000,-0.030391   QUANTITY='U-VELOCITY' /
  &DEVC ID='Profile', XYZ= 0.009968, 0.000000,-0.030391   QUANTITY='U-VELOCITY' /
  &DEVC ID='Profile', XYZ= 0.010454, 0.000000,-0.030391   QUANTITY='U-VELOCITY' /
  &DEVC ID='Profile', XYZ= 0.010941, 0.000000,-0.030391   QUANTITY='U-VELOCITY' /
  &DEVC ID='Profile', XYZ= 0.011427, 0.000000,-0.030391   QUANTITY='U-VELOCITY' /
  &DEVC ID='Profile', XYZ= 0.011913, 0.000000,-0.030391   QUANTITY='U-VELOCITY' /
  &DEVC ID='Profile', XYZ= 0.012399, 0.000000,-0.030391   QUANTITY='U-VELOCITY' /
  &DEVC ID='Profile', XYZ= 0.012886, 0.000000,-0.030391   QUANTITY='U-VELOCITY' /
  &DEVC ID='Profile', XYZ= 0.013372, 0.000000,-0.030391   QUANTITY='U-VELOCITY' /
  &DEVC ID='Profile', XYZ= 0.013858, 0.000000,-0.030391   QUANTITY='U-VELOCITY' /
  &DEVC ID='Profile', XYZ= 0.014344, 0.000000,-0.030391   QUANTITY='U-VELOCITY' /
  &DEVC ID='Profile', XYZ= 0.014831, 0.000000,-0.030391   QUANTITY='U-VELOCITY' /
  &DEVC ID='Profile', XYZ= 0.015317, 0.000000,-0.030391   QUANTITY='U-VELOCITY' /